data_image0
_cell_length_a       6.47932
_cell_length_b       6.82185
_cell_length_c       6.99704
_cell_angle_alpha    107.277
_cell_angle_beta     117.581
_cell_angle_gamma    61.6475

_symmetry_space_group_name_H-M    "P 1"
_symmetry_int_tables_number       1

loop_
  _symmetry_equiv_pos_as_xyz
  'x, y, z'

loop_
  _atom_site_label
  _atom_site_occupancy
  _atom_site_fract_x
  _atom_site_fract_y
  _atom_site_fract_z
  _atom_site_thermal_displace_type
  _atom_site_B_iso_or_equiv
  _atom_site_type_symbol
  Cl1      1.0000 0.68000  0.79600  0.15700  Biso   1.000  Cl
  Cl2      1.0000 0.21600  0.75500  0.18700  Biso   1.000  Cl
  Cl3      1.0000 0.26000  0.25500  0.30000  Biso   1.000  Cl
  Cl4      1.0000 0.78500  0.25500  0.30000  Biso   1.000  Cl
  Cl5      1.0000 0.21500  0.74500  0.70000  Biso   1.000  Cl
  Cl6      1.0000 0.74000  0.74500  0.70000  Biso   1.000  Cl
  Cl7      1.0000 0.78400  0.24500  0.81300  Biso   1.000  Cl
  Cl8      1.0000 0.32000  0.20400  0.84300  Biso   1.000  Cl
  W1       1.0000 0.20500  0.00000  0.00000  Biso   1.000  W 
  W2       1.0000 0.79500  0.00000  0.00000  Biso   1.000  W 
