data_image0
_cell_length_a       3.34484
_cell_length_b       3.9295
_cell_length_c       3.9295
_cell_angle_alpha    72.9503
_cell_angle_beta     93.5404
_cell_angle_gamma    93.5404

_symmetry_space_group_name_H-M    "P 1"
_symmetry_int_tables_number       1

loop_
  _symmetry_equiv_pos_as_xyz
  'x, y, z'

loop_
  _atom_site_label
  _atom_site_occupancy
  _atom_site_fract_x
  _atom_site_fract_y
  _atom_site_fract_z
  _atom_site_thermal_displace_type
  _atom_site_B_iso_or_equiv
  _atom_site_type_symbol
  C1       1.0000 0.10700  0.98700  0.98700  Biso   1.000  C 
  Cu1      1.0000 0.45400  0.53900  0.53900  Biso   1.000  Cu
  O1       1.0000 0.98200  0.81500  0.30100  Biso   1.000  O 
  O2       1.0000 0.98200  0.30100  0.81500  Biso   1.000  O 
  O3       1.0000 0.39000  0.86800  0.86800  Biso   1.000  O 
