data_image0
_cell_length_a       11.5703
_cell_length_b       11.5703
_cell_length_c       13.3764
_cell_angle_alpha    81.7841
_cell_angle_beta     98.2159
_cell_angle_gamma    157.71

_symmetry_space_group_name_H-M    "P 1"
_symmetry_int_tables_number       1

loop_
  _symmetry_equiv_pos_as_xyz
  'x, y, z'

loop_
  _atom_site_label
  _atom_site_occupancy
  _atom_site_fract_x
  _atom_site_fract_y
  _atom_site_fract_z
  _atom_site_thermal_displace_type
  _atom_site_B_iso_or_equiv
  _atom_site_type_symbol
  Ba1      1.0000 0.73700  0.40700  0.94400  Biso   1.000  Ba
  Ba2      1.0000 0.40700  0.73700  0.55600  Biso   1.000  Ba
  Ba3      1.0000 0.26300  0.59300  0.05620  Biso   1.000  Ba
  Ba4      1.0000 0.59300  0.26300  0.44400  Biso   1.000  Ba
  Ba5      1.0000 0.00000  1.00000  0.50000  Biso   1.000  Ba
  Ba6      1.0000 0.00000  0.00000  0.00000  Biso   1.000  Ba
  O1       1.0000 0.75500  0.28200  0.78600  Biso   1.000  O 
  O2       1.0000 0.28200  0.75500  0.71400  Biso   1.000  O 
  O3       1.0000 0.24500  0.71800  0.21400  Biso   1.000  O 
  O4       1.0000 0.71800  0.24500  0.28600  Biso   1.000  O 
  O5       1.0000 0.81800  0.28100  0.59200  Biso   1.000  O 
  O6       1.0000 0.28100  0.81800  0.90800  Biso   1.000  O 
  O7       1.0000 0.18200  0.71900  0.40800  Biso   1.000  O 
  O8       1.0000 0.71900  0.18200  0.09190  Biso   1.000  O 
  O9       1.0000 0.92100  0.58900  0.63200  Biso   1.000  O 
  O10      1.0000 0.58900  0.92100  0.86800  Biso   1.000  O 
  O11      1.0000 0.07900  0.41100  0.36800  Biso   1.000  O 
  O12      1.0000 0.41100  0.07900  0.13200  Biso   1.000  O 
  O13      1.0000 0.54000  0.39900  0.54900  Biso   1.000  O 
  O14      1.0000 0.39900  0.54000  0.95100  Biso   1.000  O 
  O15      1.0000 0.46000  0.60100  0.45100  Biso   1.000  O 
  O16      1.0000 0.60100  0.46000  0.04890  Biso   1.000  O 
  O17      1.0000 0.94700  0.82400  0.68600  Biso   1.000  O 
  O18      1.0000 0.82400  0.94700  0.81400  Biso   1.000  O 
  O19      1.0000 0.05330  0.17600  0.31400  Biso   1.000  O 
  O20      1.0000 0.17600  0.05330  0.18600  Biso   1.000  O 
  O21      1.0000 0.50400  0.27500  0.74900  Biso   1.000  O 
  O22      1.0000 0.27500  0.50400  0.75100  Biso   1.000  O 
  O23      1.0000 0.49600  0.72500  0.25100  Biso   1.000  O 
  O24      1.0000 0.72500  0.49600  0.24900  Biso   1.000  O 
  O25      1.0000 0.11100  0.93600  0.88700  Biso   1.000  O 
  O26      1.0000 0.93600  0.11100  0.61300  Biso   1.000  O 
  O27      1.0000 0.88900  0.06370  0.11300  Biso   1.000  O 
  O28      1.0000 0.06370  0.88900  0.38700  Biso   1.000  O 
  O29      1.0000 0.29900  0.29900  0.75000  Biso   1.000  O 
  O30      1.0000 0.70100  0.70100  0.25000  Biso   1.000  O 
  Si1      1.0000 0.92700  0.45500  0.67800  Biso   1.000  Si
  Si2      1.0000 0.45500  0.92700  0.82200  Biso   1.000  Si
  Si3      1.0000 0.07310  0.54500  0.32200  Biso   1.000  Si
  Si4      1.0000 0.54500  0.07310  0.17800  Biso   1.000  Si
  Si5      1.0000 0.71400  0.51000  0.65100  Biso   1.000  Si
  Si6      1.0000 0.51000  0.71400  0.84900  Biso   1.000  Si
  Si7      1.0000 0.28600  0.49000  0.34900  Biso   1.000  Si
  Si8      1.0000 0.49000  0.28600  0.15100  Biso   1.000  Si
  Si9      1.0000 0.20400  0.07150  0.77500  Biso   1.000  Si
  Si10     1.0000 0.07150  0.20400  0.72500  Biso   1.000  Si
  Si11     1.0000 0.79600  0.92800  0.22500  Biso   1.000  Si
  Si12     1.0000 0.92800  0.79600  0.27500  Biso   1.000  Si
