data_image0
_cell_length_a       4.72988
_cell_length_b       4.72972
_cell_length_c       7.78501
_cell_angle_alpha    90
_cell_angle_beta     90.0013
_cell_angle_gamma    119.999

_symmetry_space_group_name_H-M    "P 1"
_symmetry_int_tables_number       1

loop_
  _symmetry_equiv_pos_as_xyz
  'x, y, z'

loop_
  _atom_site_label
  _atom_site_occupancy
  _atom_site_fract_x
  _atom_site_fract_y
  _atom_site_fract_z
  _atom_site_thermal_displace_type
  _atom_site_B_iso_or_equiv
  _atom_site_type_symbol
  Al1      1.0000 0.00000  0.00003  0.50000  Biso   1.000  Al
  K1       1.0000 0.00000  0.00003  0.00000  Biso   1.000  K 
  O1       1.0000 0.33300  0.66700  0.09290  Biso   1.000  O 
  O2       1.0000 0.26000  0.34200  0.34400  Biso   1.000  O 
  O3       1.0000 0.65800  0.91900  0.34400  Biso   1.000  O 
  O4       1.0000 0.08130  0.74000  0.34400  Biso   1.000  O 
  O5       1.0000 0.91900  0.65900  0.65600  Biso   1.000  O 
  O6       1.0000 0.34200  0.26000  0.65600  Biso   1.000  O 
  O7       1.0000 0.74000  0.08140  0.65600  Biso   1.000  O 
  O8       1.0000 0.66700  0.33300  0.90700  Biso   1.000  O 
  S1       1.0000 0.33300  0.66700  0.27900  Biso   1.000  S 
  S2       1.0000 0.66700  0.33300  0.72100  Biso   1.000  S 
