data_image0
_cell_length_a       3.81104
_cell_length_b       3.81104
_cell_length_c       6.77373
_cell_angle_alpha    106.338
_cell_angle_beta     106.338
_cell_angle_gamma    90

_symmetry_space_group_name_H-M    "P 1"
_symmetry_int_tables_number       1

loop_
  _symmetry_equiv_pos_as_xyz
  'x, y, z'

loop_
  _atom_site_label
  _atom_site_occupancy
  _atom_site_fract_x
  _atom_site_fract_y
  _atom_site_fract_z
  _atom_site_thermal_displace_type
  _atom_site_B_iso_or_equiv
  _atom_site_type_symbol
  Mn1      1.0000 0.00000  0.00000  0.00000  Biso   1.000  Mn
  O1       1.0000 0.50000  0.00000  0.00000  Biso   1.000  O 
  O2       1.0000 0.00000  0.50000  0.00000  Biso   1.000  O 
  O3       1.0000 0.15700  0.15700  0.31400  Biso   1.000  O 
  O4       1.0000 0.84300  0.84300  0.68600  Biso   1.000  O 
  Sr1      1.0000 0.64500  0.64500  0.28900  Biso   1.000  Sr
  Sr2      1.0000 0.35500  0.35500  0.71100  Biso   1.000  Sr
