data_image0
_cell_length_a       4.07496
_cell_length_b       4.07496
_cell_length_c       5.16194
_cell_angle_alpha    113.248
_cell_angle_beta     113.248
_cell_angle_gamma    90

_symmetry_space_group_name_H-M    "P 1"
_symmetry_int_tables_number       1

loop_
  _symmetry_equiv_pos_as_xyz
  'x, y, z'

loop_
  _atom_site_label
  _atom_site_occupancy
  _atom_site_fract_x
  _atom_site_fract_y
  _atom_site_fract_z
  _atom_site_thermal_displace_type
  _atom_site_B_iso_or_equiv
  _atom_site_type_symbol
  Fe1      1.0000 0.00000  0.00000  0.00000  Biso   1.000  Fe
  Fe2      1.0000 0.25000  0.75000  0.50000  Biso   1.000  Fe
  Li1      1.0000 0.50000  0.50000  0.00000  Biso   1.000  Li
  Li2      1.0000 0.75000  0.25000  0.50000  Biso   1.000  Li
  O1       1.0000 0.48500  0.98500  0.97000  Biso   1.000  O 
  O2       1.0000 0.01480  0.51500  0.02960  Biso   1.000  O 
  O3       1.0000 0.23500  0.23500  0.47000  Biso   1.000  O 
  O4       1.0000 0.76500  0.76500  0.53000  Biso   1.000  O 
