data_image0
_cell_length_a       6.5194
_cell_length_b       11.1473
_cell_length_c       6.85581
_cell_angle_alpha    90
_cell_angle_beta     111.918
_cell_angle_gamma    90

_symmetry_space_group_name_H-M    "P 1"
_symmetry_int_tables_number       1

loop_
  _symmetry_equiv_pos_as_xyz
  'x, y, z'

loop_
  _atom_site_label
  _atom_site_occupancy
  _atom_site_fract_x
  _atom_site_fract_y
  _atom_site_fract_z
  _atom_site_thermal_displace_type
  _atom_site_B_iso_or_equiv
  _atom_site_type_symbol
  P1       1.0000 0.48000  0.23900  0.05530  Biso   1.000  P 
  P2       1.0000 0.68500  0.00602  0.40000  Biso   1.000  P 
  P3       1.0000 0.24200  0.75800  0.42600  Biso   1.000  P 
  P4       1.0000 0.46400  0.13400  0.49400  Biso   1.000  P 
  P5       1.0000 0.53600  0.63400  0.50600  Biso   1.000  P 
  P6       1.0000 0.75800  0.25800  0.57400  Biso   1.000  P 
  P7       1.0000 0.31500  0.50600  0.60000  Biso   1.000  P 
  P8       1.0000 0.52000  0.73900  0.94500  Biso   1.000  P 
  S1       1.0000 0.63000  0.06670  0.08940  Biso   1.000  S 
  S2       1.0000 0.14800  0.87700  0.20100  Biso   1.000  S 
  S3       1.0000 0.25400  0.20700  0.21300  Biso   1.000  S 
  S4       1.0000 0.72200  0.34600  0.28800  Biso   1.000  S 
  S5       1.0000 0.03620  0.60600  0.38100  Biso   1.000  S 
  S6       1.0000 0.96400  0.10600  0.61900  Biso   1.000  S 
  S7       1.0000 0.27800  0.84600  0.71200  Biso   1.000  S 
  S8       1.0000 0.74600  0.70700  0.78700  Biso   1.000  S 
  S9       1.0000 0.85200  0.37700  0.79900  Biso   1.000  S 
  S10      1.0000 0.37000  0.56700  0.91100  Biso   1.000  S 
