data_image0
_cell_length_a       6.96461
_cell_length_b       6.96461
_cell_length_c       6.96461
_cell_angle_alpha    109.471
_cell_angle_beta     109.471
_cell_angle_gamma    109.471

_symmetry_space_group_name_H-M    "P 1"
_symmetry_int_tables_number       1

loop_
  _symmetry_equiv_pos_as_xyz
  'x, y, z'

loop_
  _atom_site_label
  _atom_site_occupancy
  _atom_site_fract_x
  _atom_site_fract_y
  _atom_site_fract_z
  _atom_site_thermal_displace_type
  _atom_site_B_iso_or_equiv
  _atom_site_type_symbol
  C1       1.0000 0.25000  0.28600  0.03570  Biso   1.000  C 
  C2       1.0000 0.25000  0.46400  0.21400  Biso   1.000  C 
  C3       1.0000 0.03570  0.78600  0.25000  Biso   1.000  C 
  C4       1.0000 0.21400  0.96400  0.25000  Biso   1.000  C 
  C5       1.0000 0.75000  0.03570  0.28600  Biso   1.000  C 
  C6       1.0000 0.75000  0.21400  0.46400  Biso   1.000  C 
  C7       1.0000 0.78600  0.75000  0.53600  Biso   1.000  C 
  C8       1.0000 0.96400  0.75000  0.71400  Biso   1.000  C 
  C9       1.0000 0.28600  0.53600  0.75000  Biso   1.000  C 
  C10      1.0000 0.46400  0.71400  0.75000  Biso   1.000  C 
  C11      1.0000 0.53600  0.25000  0.78600  Biso   1.000  C 
  C12      1.0000 0.71400  0.25000  0.96400  Biso   1.000  C 
  U1       1.0000 0.40200  0.00000  0.00000  Biso   1.000  U 
  U2       1.0000 0.90200  0.00000  0.00000  Biso   1.000  U 
  U3       1.0000 0.59800  0.59800  0.09840  Biso   1.000  U 
  U4       1.0000 0.00000  0.50000  0.40200  Biso   1.000  U 
  U5       1.0000 0.50000  0.40200  0.50000  Biso   1.000  U 
  U6       1.0000 0.50000  0.90200  0.50000  Biso   1.000  U 
  U7       1.0000 0.09840  0.09840  0.59800  Biso   1.000  U 
  U8       1.0000 0.00000  0.50000  0.90200  Biso   1.000  U 
