data_image0
_cell_length_a       7.58787
_cell_length_b       7.58787
_cell_length_c       8.43103
_cell_angle_alpha    116.743
_cell_angle_beta     63.2565
_cell_angle_gamma    120

_symmetry_space_group_name_H-M    "P 1"
_symmetry_int_tables_number       1

loop_
  _symmetry_equiv_pos_as_xyz
  'x, y, z'

loop_
  _atom_site_label
  _atom_site_occupancy
  _atom_site_fract_x
  _atom_site_fract_y
  _atom_site_fract_z
  _atom_site_thermal_displace_type
  _atom_site_B_iso_or_equiv
  _atom_site_type_symbol
  I1       1.0000 0.58100  0.06860  0.25100  Biso   1.000  I 
  I2       1.0000 0.23600  0.41900  0.25100  Biso   1.000  I 
  I3       1.0000 0.93100  0.76400  0.25100  Biso   1.000  I 
  I4       1.0000 0.06860  0.23600  0.74900  Biso   1.000  I 
  I5       1.0000 0.76400  0.58100  0.74900  Biso   1.000  I 
  I6       1.0000 0.41900  0.93100  0.74900  Biso   1.000  I 
  Sb1      1.0000 0.16800  0.83200  0.49500  Biso   1.000  Sb
  Sb2      1.0000 0.83200  0.16800  0.50500  Biso   1.000  Sb
