data_image0
_cell_length_a       6.80611
_cell_length_b       6.80611
_cell_length_c       6.80611
_cell_angle_alpha    120.054
_cell_angle_beta     89.9071
_cell_angle_gamma    120.054

_symmetry_space_group_name_H-M    "P 1"
_symmetry_int_tables_number       1

loop_
  _symmetry_equiv_pos_as_xyz
  'x, y, z'

loop_
  _atom_site_label
  _atom_site_occupancy
  _atom_site_fract_x
  _atom_site_fract_y
  _atom_site_fract_z
  _atom_site_thermal_displace_type
  _atom_site_B_iso_or_equiv
  _atom_site_type_symbol
  Cr1      1.0000 0.00000  0.00000  0.00000  Biso   1.000  Cr
  Cr2      1.0000 0.75000  0.50000  0.25000  Biso   1.000  Cr
  K1       1.0000 0.37500  0.75000  0.12500  Biso   1.000  K 
  K2       1.0000 0.37500  0.75000  0.62500  Biso   1.000  K 
  K3       1.0000 0.37500  0.25000  0.62500  Biso   1.000  K 
  K4       1.0000 0.87500  0.25000  0.62500  Biso   1.000  K 
  O1       1.0000 0.09990  0.20000  0.30000  Biso   1.000  O 
  O2       1.0000 0.05020  0.70000  0.35000  Biso   1.000  O 
  O3       1.0000 0.65000  0.30000  0.35000  Biso   1.000  O 
  O4       1.0000 0.65000  0.70000  0.35000  Biso   1.000  O 
  O5       1.0000 0.09990  0.80000  0.90000  Biso   1.000  O 
  O6       1.0000 0.10000  0.20000  0.90000  Biso   1.000  O 
  O7       1.0000 0.70000  0.80000  0.90000  Biso   1.000  O 
  O8       1.0000 0.65000  0.30000  0.95000  Biso   1.000  O 
