data_image0
_cell_length_a       4.53347
_cell_length_b       5.72884
_cell_length_c       5.02511
_cell_angle_alpha    90
_cell_angle_beta     90
_cell_angle_gamma    90

_symmetry_space_group_name_H-M    "P 1"
_symmetry_int_tables_number       1

loop_
  _symmetry_equiv_pos_as_xyz
  'x, y, z'

loop_
  _atom_site_label
  _atom_site_occupancy
  _atom_site_fract_x
  _atom_site_fract_y
  _atom_site_fract_z
  _atom_site_thermal_displace_type
  _atom_site_B_iso_or_equiv
  _atom_site_type_symbol
  C1       1.0000 0.00000  0.37300  0.25000  Biso   1.000  C 
  C2       1.0000 0.50000  0.87300  0.25000  Biso   1.000  C 
  C3       1.0000 0.50000  0.12700  0.75000  Biso   1.000  C 
  C4       1.0000 0.00000  0.62700  0.75000  Biso   1.000  C 
  V1       1.0000 0.24400  0.11700  0.07630  Biso   1.000  V 
  V2       1.0000 0.25600  0.61700  0.07630  Biso   1.000  V 
  V3       1.0000 0.75600  0.11700  0.42400  Biso   1.000  V 
  V4       1.0000 0.74400  0.61700  0.42400  Biso   1.000  V 
  V5       1.0000 0.25600  0.38300  0.57600  Biso   1.000  V 
  V6       1.0000 0.24400  0.88300  0.57600  Biso   1.000  V 
  V7       1.0000 0.74400  0.38300  0.92400  Biso   1.000  V 
  V8       1.0000 0.75600  0.88300  0.92400  Biso   1.000  V 
