data_image0
_cell_length_a       5.61595
_cell_length_b       5.61595
_cell_length_c       6.91083
_cell_angle_alpha    113.974
_cell_angle_beta     66.0264
_cell_angle_gamma    120

_symmetry_space_group_name_H-M    "P 1"
_symmetry_int_tables_number       1

loop_
  _symmetry_equiv_pos_as_xyz
  'x, y, z'

loop_
  _atom_site_label
  _atom_site_occupancy
  _atom_site_fract_x
  _atom_site_fract_y
  _atom_site_fract_z
  _atom_site_thermal_displace_type
  _atom_site_B_iso_or_equiv
  _atom_site_type_symbol
  Mo1      1.0000 0.33300  0.66700  0.00117  Biso   1.000  Mo
  Mo2      1.0000 0.16700  0.83300  0.49900  Biso   1.000  Mo
  Mo3      1.0000 0.83300  0.16700  0.50100  Biso   1.000  Mo
  Mo4      1.0000 0.66700  0.33300  0.99900  Biso   1.000  Mo
  S1       1.0000 0.25000  0.09260  0.25000  Biso   1.000  S 
  S2       1.0000 0.90700  0.40700  0.25000  Biso   1.000  S 
  S3       1.0000 0.59300  0.75000  0.25000  Biso   1.000  S 
  S4       1.0000 0.40700  0.25000  0.75000  Biso   1.000  S 
  S5       1.0000 0.09260  0.59300  0.75000  Biso   1.000  S 
  S6       1.0000 0.75000  0.90700  0.75000  Biso   1.000  S 
