data_image0
_cell_length_a       7.63384
_cell_length_b       7.63384
_cell_length_c       7.63384
_cell_angle_alpha    120
_cell_angle_beta     90
_cell_angle_gamma    120

_symmetry_space_group_name_H-M    "P 1"
_symmetry_int_tables_number       1

loop_
  _symmetry_equiv_pos_as_xyz
  'x, y, z'

loop_
  _atom_site_label
  _atom_site_occupancy
  _atom_site_fract_x
  _atom_site_fract_y
  _atom_site_fract_z
  _atom_site_thermal_displace_type
  _atom_site_B_iso_or_equiv
  _atom_site_type_symbol
  La1      1.0000 0.37500  0.25000  0.12500  Biso   1.000  La
  La2      1.0000 0.87500  0.25000  0.12500  Biso   1.000  La
  La3      1.0000 0.87500  0.75000  0.12500  Biso   1.000  La
  La4      1.0000 0.87500  0.75000  0.62500  Biso   1.000  La
  O1       1.0000 0.00000  0.00000  0.00000  Biso   1.000  O 
  O2       1.0000 0.75000  0.50000  0.25000  Biso   1.000  O 
  O3       1.0000 0.29100  0.00000  0.29100  Biso   1.000  O 
  O4       1.0000 0.29100  0.58200  0.29100  Biso   1.000  O 
  O5       1.0000 0.70900  0.00000  0.29100  Biso   1.000  O 
  O6       1.0000 0.04110  0.08210  0.54100  Biso   1.000  O 
  O7       1.0000 0.04110  0.50000  0.54100  Biso   1.000  O 
  O8       1.0000 0.45900  0.50000  0.54100  Biso   1.000  O 
  O9       1.0000 0.29100  0.00000  0.70900  Biso   1.000  O 
  O10      1.0000 0.70900  0.00000  0.70900  Biso   1.000  O 
  O11      1.0000 0.70900  0.41800  0.70900  Biso   1.000  O 
  O12      1.0000 0.04110  0.50000  0.95900  Biso   1.000  O 
  O13      1.0000 0.45900  0.50000  0.95900  Biso   1.000  O 
  O14      1.0000 0.45900  0.91800  0.95900  Biso   1.000  O 
  Zr1      1.0000 0.37500  0.75000  0.12500  Biso   1.000  Zr
  Zr2      1.0000 0.37500  0.25000  0.62500  Biso   1.000  Zr
  Zr3      1.0000 0.37500  0.75000  0.62500  Biso   1.000  Zr
  Zr4      1.0000 0.87500  0.25000  0.62500  Biso   1.000  Zr
