data_image0
_cell_length_a       8.16471
_cell_length_b       10.847
_cell_length_c       6.20586
_cell_angle_alpha    90
_cell_angle_beta     90
_cell_angle_gamma    90

_symmetry_space_group_name_H-M    "P 1"
_symmetry_int_tables_number       1

loop_
  _symmetry_equiv_pos_as_xyz
  'x, y, z'

loop_
  _atom_site_label
  _atom_site_occupancy
  _atom_site_fract_x
  _atom_site_fract_y
  _atom_site_fract_z
  _atom_site_thermal_displace_type
  _atom_site_B_iso_or_equiv
  _atom_site_type_symbol
  Cs1      1.0000 0.17600  0.09100  0.25000  Biso   1.000  Cs
  Cs2      1.0000 0.67600  0.40900  0.25000  Biso   1.000  Cs
  Cs3      1.0000 0.98800  0.70000  0.25000  Biso   1.000  Cs
  Cs4      1.0000 0.48800  0.80000  0.25000  Biso   1.000  Cs
  Cs5      1.0000 0.51200  0.20000  0.75000  Biso   1.000  Cs
  Cs6      1.0000 0.01170  0.30000  0.75000  Biso   1.000  Cs
  Cs7      1.0000 0.32400  0.59100  0.75000  Biso   1.000  Cs
  Cs8      1.0000 0.82400  0.90900  0.75000  Biso   1.000  Cs
  O1       1.0000 0.80500  0.14600  0.05330  Biso   1.000  O 
  O2       1.0000 0.30500  0.35400  0.05330  Biso   1.000  O 
  O3       1.0000 0.55800  0.08730  0.25000  Biso   1.000  O 
  O4       1.0000 0.05810  0.41300  0.25000  Biso   1.000  O 
  O5       1.0000 0.29900  0.54900  0.25000  Biso   1.000  O 
  O6       1.0000 0.79900  0.95100  0.25000  Biso   1.000  O 
  O7       1.0000 0.80500  0.14600  0.44700  Biso   1.000  O 
  O8       1.0000 0.30500  0.35400  0.44700  Biso   1.000  O 
  O9       1.0000 0.69500  0.64600  0.55300  Biso   1.000  O 
  O10      1.0000 0.19500  0.85400  0.55300  Biso   1.000  O 
  O11      1.0000 0.20100  0.04860  0.75000  Biso   1.000  O 
  O12      1.0000 0.70100  0.45100  0.75000  Biso   1.000  O 
  O13      1.0000 0.94200  0.58700  0.75000  Biso   1.000  O 
  O14      1.0000 0.44200  0.91300  0.75000  Biso   1.000  O 
  O15      1.0000 0.69500  0.64600  0.94700  Biso   1.000  O 
  O16      1.0000 0.19500  0.85400  0.94700  Biso   1.000  O 
  S1       1.0000 0.74100  0.08230  0.25000  Biso   1.000  S 
  S2       1.0000 0.24100  0.41800  0.25000  Biso   1.000  S 
  S3       1.0000 0.75900  0.58200  0.75000  Biso   1.000  S 
  S4       1.0000 0.25900  0.91800  0.75000  Biso   1.000  S 
