data_image0
_cell_length_a       8.43882
_cell_length_b       12.8285
_cell_length_c       4.94982
_cell_angle_alpha    90
_cell_angle_beta     90
_cell_angle_gamma    90

_symmetry_space_group_name_H-M    "P 1"
_symmetry_int_tables_number       1

loop_
  _symmetry_equiv_pos_as_xyz
  'x, y, z'

loop_
  _atom_site_label
  _atom_site_occupancy
  _atom_site_fract_x
  _atom_site_fract_y
  _atom_site_fract_z
  _atom_site_thermal_displace_type
  _atom_site_B_iso_or_equiv
  _atom_site_type_symbol
  B1       1.0000 0.53400  0.14800  0.63100  Biso   1.000  B 
  B2       1.0000 0.96600  0.35200  0.63100  Biso   1.000  B 
  B3       1.0000 0.03400  0.85200  0.86900  Biso   1.000  B 
  B4       1.0000 0.46600  0.64800  0.86900  Biso   1.000  B 
  B5       1.0000 0.46600  0.85200  0.36900  Biso   1.000  B 
  B6       1.0000 0.03400  0.64800  0.36900  Biso   1.000  B 
  B7       1.0000 0.96600  0.14800  0.13100  Biso   1.000  B 
  B8       1.0000 0.53400  0.35200  0.13100  Biso   1.000  B 
  B9       1.0000 0.74600  0.06260  0.37600  Biso   1.000  B 
  B10      1.0000 0.75400  0.43700  0.37600  Biso   1.000  B 
  B11      1.0000 0.24600  0.93700  0.12400  Biso   1.000  B 
  B12      1.0000 0.25400  0.56300  0.12400  Biso   1.000  B 
  B13      1.0000 0.25400  0.93700  0.62400  Biso   1.000  B 
  B14      1.0000 0.24600  0.56300  0.62400  Biso   1.000  B 
  B15      1.0000 0.75400  0.06260  0.87600  Biso   1.000  B 
  B16      1.0000 0.74600  0.43700  0.87600  Biso   1.000  B 
  Ca1      1.0000 0.38000  0.13800  0.12600  Biso   1.000  Ca
  Ca2      1.0000 0.12000  0.36200  0.12600  Biso   1.000  Ca
  Ca3      1.0000 0.88000  0.86200  0.37400  Biso   1.000  Ca
  Ca4      1.0000 0.62000  0.63800  0.37400  Biso   1.000  Ca
  Ca5      1.0000 0.62000  0.86200  0.87400  Biso   1.000  Ca
  Ca6      1.0000 0.88000  0.63800  0.87400  Biso   1.000  Ca
  Ca7      1.0000 0.12000  0.13800  0.62600  Biso   1.000  Ca
  Ca8      1.0000 0.38000  0.36200  0.62600  Biso   1.000  Ca
  O1       1.0000 0.88900  0.12800  0.36700  Biso   1.000  O 
  O2       1.0000 0.61100  0.37200  0.36700  Biso   1.000  O 
  O3       1.0000 0.38900  0.87200  0.13300  Biso   1.000  O 
  O4       1.0000 0.11100  0.62800  0.13300  Biso   1.000  O 
  O5       1.0000 0.11100  0.87200  0.63300  Biso   1.000  O 
  O6       1.0000 0.38900  0.62800  0.63300  Biso   1.000  O 
  O7       1.0000 0.61100  0.12800  0.86700  Biso   1.000  O 
  O8       1.0000 0.88900  0.37200  0.86700  Biso   1.000  O 
  O9       1.0000 0.60200  0.12500  0.38800  Biso   1.000  O 
  O10      1.0000 0.89800  0.37500  0.38800  Biso   1.000  O 
  O11      1.0000 0.10200  0.87500  0.11200  Biso   1.000  O 
  O12      1.0000 0.39800  0.62500  0.11200  Biso   1.000  O 
  O13      1.0000 0.39800  0.87500  0.61200  Biso   1.000  O 
  O14      1.0000 0.10200  0.62500  0.61200  Biso   1.000  O 
  O15      1.0000 0.89800  0.12500  0.88800  Biso   1.000  O 
  O16      1.0000 0.60200  0.37500  0.88800  Biso   1.000  O 
  O17      1.0000 0.74300  0.99800  0.12600  Biso   1.000  O 
  O18      1.0000 0.75700  0.50200  0.12600  Biso   1.000  O 
  O19      1.0000 0.24300  0.00187  0.37400  Biso   1.000  O 
  O20      1.0000 0.25700  0.49800  0.37400  Biso   1.000  O 
  O21      1.0000 0.25700  0.00187  0.87400  Biso   1.000  O 
  O22      1.0000 0.24300  0.49800  0.87400  Biso   1.000  O 
  O23      1.0000 0.75700  0.99800  0.62600  Biso   1.000  O 
  O24      1.0000 0.74300  0.50200  0.62600  Biso   1.000  O 
  O25      1.0000 0.38400  0.18600  0.63600  Biso   1.000  O 
  O26      1.0000 0.11600  0.31400  0.63600  Biso   1.000  O 
  O27      1.0000 0.88500  0.81400  0.86400  Biso   1.000  O 
  O28      1.0000 0.61600  0.68600  0.86400  Biso   1.000  O 
  O29      1.0000 0.61600  0.81400  0.36400  Biso   1.000  O 
  O30      1.0000 0.88500  0.68600  0.36400  Biso   1.000  O 
  O31      1.0000 0.11600  0.18600  0.13600  Biso   1.000  O 
  O32      1.0000 0.38400  0.31400  0.13600  Biso   1.000  O 
