data_image0
_cell_length_a       8.82703
_cell_length_b       8.82703
_cell_length_c       8.82703
_cell_angle_alpha    107.793
_cell_angle_beta     107.793
_cell_angle_gamma    107.793

_symmetry_space_group_name_H-M    "P 1"
_symmetry_int_tables_number       1

loop_
  _symmetry_equiv_pos_as_xyz
  'x, y, z'

loop_
  _atom_site_label
  _atom_site_occupancy
  _atom_site_fract_x
  _atom_site_fract_y
  _atom_site_fract_z
  _atom_site_thermal_displace_type
  _atom_site_B_iso_or_equiv
  _atom_site_type_symbol
  Li1      1.0000 0.27300  0.87100  0.11100  Biso   1.000  Li
  Li2      1.0000 0.88900  0.72700  0.12900  Biso   1.000  Li
  Li3      1.0000 0.43400  0.60700  0.20300  Biso   1.000  Li
  Li4      1.0000 0.87100  0.11100  0.27300  Biso   1.000  Li
  Li5      1.0000 0.79700  0.56600  0.39300  Biso   1.000  Li
  Li6      1.0000 0.60700  0.20300  0.43400  Biso   1.000  Li
  Li7      1.0000 0.39300  0.79700  0.56600  Biso   1.000  Li
  Li8      1.0000 0.20300  0.43400  0.60700  Biso   1.000  Li
  Li9      1.0000 0.12900  0.88900  0.72700  Biso   1.000  Li
  Li10     1.0000 0.56600  0.39300  0.79700  Biso   1.000  Li
  Li11     1.0000 0.11100  0.27300  0.87100  Biso   1.000  Li
  Li12     1.0000 0.72700  0.12900  0.88900  Biso   1.000  Li
  O1       1.0000 0.97200  0.31100  0.00249  Biso   1.000  O 
  O2       1.0000 0.68900  0.99800  0.02790  Biso   1.000  O 
  O3       1.0000 0.34900  0.36100  0.04370  Biso   1.000  O 
  O4       1.0000 0.41900  0.75200  0.07990  Biso   1.000  O 
  O5       1.0000 0.92000  0.58100  0.24800  Biso   1.000  O 
  O6       1.0000 0.62400  0.31800  0.28200  Biso   1.000  O 
  O7       1.0000 0.00249  0.97200  0.31100  Biso   1.000  O 
  O8       1.0000 0.28200  0.62400  0.31800  Biso   1.000  O 
  O9       1.0000 0.36100  0.04370  0.34900  Biso   1.000  O 
  O10      1.0000 0.04370  0.34900  0.36100  Biso   1.000  O 
  O11      1.0000 0.68200  0.71800  0.37600  Biso   1.000  O 
  O12      1.0000 0.75200  0.07990  0.41900  Biso   1.000  O 
  O13      1.0000 0.24800  0.92000  0.58100  Biso   1.000  O 
  O14      1.0000 0.31800  0.28200  0.62400  Biso   1.000  O 
  O15      1.0000 0.95600  0.65100  0.63900  Biso   1.000  O 
  O16      1.0000 0.63900  0.95600  0.65100  Biso   1.000  O 
  O17      1.0000 0.71800  0.37600  0.68200  Biso   1.000  O 
  O18      1.0000 0.99800  0.02790  0.68900  Biso   1.000  O 
  O19      1.0000 0.37600  0.68200  0.71800  Biso   1.000  O 
  O20      1.0000 0.07990  0.41900  0.75200  Biso   1.000  O 
  O21      1.0000 0.58100  0.24800  0.92000  Biso   1.000  O 
  O22      1.0000 0.65100  0.63900  0.95600  Biso   1.000  O 
  O23      1.0000 0.31100  0.00249  0.97200  Biso   1.000  O 
  O24      1.0000 0.02790  0.68900  0.99800  Biso   1.000  O 
  W1       1.0000 0.46700  0.22900  0.05560  Biso   1.000  W 
  W2       1.0000 0.05560  0.46700  0.22900  Biso   1.000  W 
  W3       1.0000 0.22900  0.05560  0.46700  Biso   1.000  W 
  W4       1.0000 0.77100  0.94400  0.53300  Biso   1.000  W 
  W5       1.0000 0.94400  0.53300  0.77100  Biso   1.000  W 
  W6       1.0000 0.53300  0.77100  0.94400  Biso   1.000  W 
