data_image0
_cell_length_a       10.5391
_cell_length_b       10.5391
_cell_length_c       10.5391
_cell_angle_alpha    90
_cell_angle_beta     90
_cell_angle_gamma    90

_symmetry_space_group_name_H-M    "P 1"
_symmetry_int_tables_number       1

loop_
  _symmetry_equiv_pos_as_xyz
  'x, y, z'

loop_
  _atom_site_label
  _atom_site_occupancy
  _atom_site_fract_x
  _atom_site_fract_y
  _atom_site_fract_z
  _atom_site_thermal_displace_type
  _atom_site_B_iso_or_equiv
  _atom_site_type_symbol
  Cl1      1.0000 0.76300  0.47900  0.00283  Biso   1.000  Cl
  Cl2      1.0000 0.73700  0.97900  0.00283  Biso   1.000  Cl
  Cl3      1.0000 0.99700  0.26300  0.02090  Biso   1.000  Cl
  Cl4      1.0000 0.50300  0.76300  0.02090  Biso   1.000  Cl
  Cl5      1.0000 0.97900  0.49700  0.23700  Biso   1.000  Cl
  Cl6      1.0000 0.52100  0.99700  0.23700  Biso   1.000  Cl
  Cl7      1.0000 0.24800  0.24800  0.24800  Biso   1.000  Cl
  Cl8      1.0000 0.25200  0.74800  0.24800  Biso   1.000  Cl
  Cl9      1.0000 0.74800  0.24800  0.25200  Biso   1.000  Cl
  Cl10     1.0000 0.75200  0.74800  0.25200  Biso   1.000  Cl
  Cl11     1.0000 0.47900  0.49700  0.26300  Biso   1.000  Cl
  Cl12     1.0000 0.02090  0.99700  0.26300  Biso   1.000  Cl
  Cl13     1.0000 0.49700  0.26300  0.47900  Biso   1.000  Cl
  Cl14     1.0000 0.00283  0.76300  0.47900  Biso   1.000  Cl
  Cl15     1.0000 0.26300  0.47900  0.49700  Biso   1.000  Cl
  Cl16     1.0000 0.23700  0.97900  0.49700  Biso   1.000  Cl
  Cl17     1.0000 0.76300  0.02090  0.50300  Biso   1.000  Cl
  Cl18     1.0000 0.73700  0.52100  0.50300  Biso   1.000  Cl
  Cl19     1.0000 0.99700  0.23700  0.52100  Biso   1.000  Cl
  Cl20     1.0000 0.50300  0.73700  0.52100  Biso   1.000  Cl
  Cl21     1.0000 0.97900  0.00283  0.73700  Biso   1.000  Cl
  Cl22     1.0000 0.52100  0.50300  0.73700  Biso   1.000  Cl
  Cl23     1.0000 0.24800  0.25200  0.74800  Biso   1.000  Cl
  Cl24     1.0000 0.25200  0.75200  0.74800  Biso   1.000  Cl
  Cl25     1.0000 0.74800  0.25200  0.75200  Biso   1.000  Cl
  Cl26     1.0000 0.75200  0.75200  0.75200  Biso   1.000  Cl
  Cl27     1.0000 0.47900  0.00283  0.76300  Biso   1.000  Cl
  Cl28     1.0000 0.02090  0.50300  0.76300  Biso   1.000  Cl
  Cl29     1.0000 0.49700  0.23700  0.97900  Biso   1.000  Cl
  Cl30     1.0000 0.00283  0.73700  0.97900  Biso   1.000  Cl
  Cl31     1.0000 0.26300  0.02090  0.99700  Biso   1.000  Cl
  Cl32     1.0000 0.23700  0.52100  0.99700  Biso   1.000  Cl
  Pt1      1.0000 0.12400  0.12400  0.12400  Biso   1.000  Pt
  Pt2      1.0000 0.37600  0.62400  0.12400  Biso   1.000  Pt
  Pt3      1.0000 0.62400  0.12400  0.37600  Biso   1.000  Pt
  Pt4      1.0000 0.87600  0.62400  0.37600  Biso   1.000  Pt
  Pt5      1.0000 0.12400  0.37600  0.62400  Biso   1.000  Pt
  Pt6      1.0000 0.37600  0.87600  0.62400  Biso   1.000  Pt
  Pt7      1.0000 0.62400  0.37600  0.87600  Biso   1.000  Pt
  Pt8      1.0000 0.87600  0.87600  0.87600  Biso   1.000  Pt
