data_image0
_cell_length_a       5.44843
_cell_length_b       5.44843
_cell_length_c       3.85497
_cell_angle_alpha    90
_cell_angle_beta     90
_cell_angle_gamma    90

_symmetry_space_group_name_H-M    "P 1"
_symmetry_int_tables_number       1

loop_
  _symmetry_equiv_pos_as_xyz
  'x, y, z'

loop_
  _atom_site_label
  _atom_site_occupancy
  _atom_site_fract_x
  _atom_site_fract_y
  _atom_site_fract_z
  _atom_site_thermal_displace_type
  _atom_site_B_iso_or_equiv
  _atom_site_type_symbol
  Cl1      1.0000 0.00000  0.00000  0.44000  Biso   1.000  Cl
  Cl2      1.0000 0.50000  0.50000  0.56000  Biso   1.000  Cl
  H1       1.0000 0.34300  0.00000  0.15500  Biso   1.000  H 
  H2       1.0000 0.65700  0.00000  0.15500  Biso   1.000  H 
  H3       1.0000 0.00000  0.34300  0.15500  Biso   1.000  H 
  H4       1.0000 0.00000  0.65700  0.15500  Biso   1.000  H 
  H5       1.0000 0.50000  0.15700  0.84500  Biso   1.000  H 
  H6       1.0000 0.15700  0.50000  0.84500  Biso   1.000  H 
  H7       1.0000 0.84300  0.50000  0.84500  Biso   1.000  H 
  H8       1.0000 0.50000  0.84300  0.84500  Biso   1.000  H 
  N1       1.0000 0.50000  0.00000  0.00000  Biso   1.000  N 
  N2       1.0000 0.00000  0.50000  0.00000  Biso   1.000  N 
