data_image0
_cell_length_a       6.39993
_cell_length_b       6.39993
_cell_length_c       8.20747
_cell_angle_alpha    90
_cell_angle_beta     90
_cell_angle_gamma    56.028

_symmetry_space_group_name_H-M    "P 1"
_symmetry_int_tables_number       1

loop_
  _symmetry_equiv_pos_as_xyz
  'x, y, z'

loop_
  _atom_site_label
  _atom_site_occupancy
  _atom_site_fract_x
  _atom_site_fract_y
  _atom_site_fract_z
  _atom_site_thermal_displace_type
  _atom_site_B_iso_or_equiv
  _atom_site_type_symbol
  As1      1.0000 0.37900  0.37900  0.11600  Biso   1.000  As
  As2      1.0000 0.87900  0.87900  0.38400  Biso   1.000  As
  As3      1.0000 0.12100  0.12100  0.61600  Biso   1.000  As
  As4      1.0000 0.62100  0.62100  0.88400  Biso   1.000  As
  Mg1      1.0000 0.00000  0.00000  0.00000  Biso   1.000  Mg
  Mg2      1.0000 0.88800  0.38800  0.25000  Biso   1.000  Mg
  Mg3      1.0000 0.38800  0.88800  0.25000  Biso   1.000  Mg
  Mg4      1.0000 0.50000  0.50000  0.50000  Biso   1.000  Mg
  Mg5      1.0000 0.61200  0.11200  0.75000  Biso   1.000  Mg
  Mg6      1.0000 0.11200  0.61200  0.75000  Biso   1.000  Mg
  O1       1.0000 0.85600  0.38400  0.00071  Biso   1.000  O 
  O2       1.0000 0.38400  0.85600  0.00071  Biso   1.000  O 
  O3       1.0000 0.25300  0.25300  0.23100  Biso   1.000  O 
  O4       1.0000 0.50100  0.50100  0.25000  Biso   1.000  O 
  O5       1.0000 0.00139  0.00139  0.25000  Biso   1.000  O 
  O6       1.0000 0.75300  0.75300  0.26900  Biso   1.000  O 
  O7       1.0000 0.88400  0.35600  0.49900  Biso   1.000  O 
  O8       1.0000 0.35600  0.88400  0.49900  Biso   1.000  O 
  O9       1.0000 0.64400  0.11600  0.50100  Biso   1.000  O 
  O10      1.0000 0.11600  0.64400  0.50100  Biso   1.000  O 
  O11      1.0000 0.24700  0.24700  0.73100  Biso   1.000  O 
  O12      1.0000 0.99900  0.99900  0.75000  Biso   1.000  O 
  O13      1.0000 0.49900  0.49900  0.75000  Biso   1.000  O 
  O14      1.0000 0.74700  0.74700  0.76900  Biso   1.000  O 
  O15      1.0000 0.61600  0.14400  0.99900  Biso   1.000  O 
  O16      1.0000 0.14400  0.61600  0.99900  Biso   1.000  O 
