data_image0
_cell_length_a       8.57502
_cell_length_b       8.57502
_cell_length_c       4.64179
_cell_angle_alpha    90
_cell_angle_beta     90
_cell_angle_gamma    90

_symmetry_space_group_name_H-M    "P 1"
_symmetry_int_tables_number       1

loop_
  _symmetry_equiv_pos_as_xyz
  'x, y, z'

loop_
  _atom_site_label
  _atom_site_occupancy
  _atom_site_fract_x
  _atom_site_fract_y
  _atom_site_fract_z
  _atom_site_thermal_displace_type
  _atom_site_B_iso_or_equiv
  _atom_site_type_symbol
  As1      1.0000 0.40100  0.40100  0.00000  Biso   1.000  As
  As2      1.0000 0.78400  0.78400  0.00000  Biso   1.000  As
  As3      1.0000 0.71600  0.28400  0.25000  Biso   1.000  As
  As4      1.0000 0.09910  0.90100  0.25000  Biso   1.000  As
  As5      1.0000 0.21600  0.21600  0.50000  Biso   1.000  As
  As6      1.0000 0.59900  0.59900  0.50000  Biso   1.000  As
  As7      1.0000 0.90100  0.09910  0.75000  Biso   1.000  As
  As8      1.0000 0.28400  0.71600  0.75000  Biso   1.000  As
  O1       1.0000 0.05910  0.05910  0.00000  Biso   1.000  O 
  O2       1.0000 0.27100  0.84800  0.02310  Biso   1.000  O 
  O3       1.0000 0.98000  0.75100  0.06860  Biso   1.000  O 
  O4       1.0000 0.52000  0.25100  0.18100  Biso   1.000  O 
  O5       1.0000 0.22900  0.34800  0.22700  Biso   1.000  O 
  O6       1.0000 0.44100  0.55900  0.25000  Biso   1.000  O 
  O7       1.0000 0.65200  0.77100  0.27300  Biso   1.000  O 
  O8       1.0000 0.74900  0.48000  0.31900  Biso   1.000  O 
  O9       1.0000 0.24900  0.02020  0.43100  Biso   1.000  O 
  O10      1.0000 0.15200  0.72900  0.47700  Biso   1.000  O 
  O11      1.0000 0.94100  0.94100  0.50000  Biso   1.000  O 
  O12      1.0000 0.72900  0.15200  0.52300  Biso   1.000  O 
  O13      1.0000 0.02020  0.24900  0.56900  Biso   1.000  O 
  O14      1.0000 0.48000  0.74900  0.68100  Biso   1.000  O 
  O15      1.0000 0.77100  0.65200  0.72700  Biso   1.000  O 
  O16      1.0000 0.55900  0.44100  0.75000  Biso   1.000  O 
  O17      1.0000 0.34800  0.22900  0.77300  Biso   1.000  O 
  O18      1.0000 0.25100  0.52000  0.81900  Biso   1.000  O 
  O19      1.0000 0.75100  0.98000  0.93100  Biso   1.000  O 
  O20      1.0000 0.84800  0.27100  0.97700  Biso   1.000  O 
