data_image0
_cell_length_a       8.06923
_cell_length_b       8.06923
_cell_length_c       8.65606
_cell_angle_alpha    90
_cell_angle_beta     117.782
_cell_angle_gamma    120

_symmetry_space_group_name_H-M    "P 1"
_symmetry_int_tables_number       1

loop_
  _symmetry_equiv_pos_as_xyz
  'x, y, z'

loop_
  _atom_site_label
  _atom_site_occupancy
  _atom_site_fract_x
  _atom_site_fract_y
  _atom_site_fract_z
  _atom_site_thermal_displace_type
  _atom_site_B_iso_or_equiv
  _atom_site_type_symbol
  Cr1      1.0000 0.69700  0.34900  0.04580  Biso   1.000  Cr
  Cr2      1.0000 0.28500  0.14300  0.42800  Biso   1.000  Cr
  Cr3      1.0000 0.71500  0.85700  0.57200  Biso   1.000  Cr
  Cr4      1.0000 0.30300  0.65100  0.95400  Biso   1.000  Cr
  O1       1.0000 0.31200  0.47000  0.10600  Biso   1.000  O 
  O2       1.0000 0.26400  0.79400  0.10600  Biso   1.000  O 
  O3       1.0000 0.63500  0.84200  0.10600  Biso   1.000  O 
  O4       1.0000 0.70600  0.16900  0.20300  Biso   1.000  O 
  O5       1.0000 0.66600  0.49700  0.20300  Biso   1.000  O 
  O6       1.0000 0.03370  0.53700  0.20300  Biso   1.000  O 
  O7       1.0000 0.00994  0.13700  0.26000  Biso   1.000  O 
  O8       1.0000 0.38800  0.25000  0.26000  Biso   1.000  O 
  O9       1.0000 0.12300  0.87300  0.26000  Biso   1.000  O 
  O10      1.0000 0.82400  0.01760  0.42700  Biso   1.000  O 
  O11      1.0000 0.62100  0.60300  0.42700  Biso   1.000  O 
  O12      1.0000 0.40900  0.80600  0.42700  Biso   1.000  O 
  O13      1.0000 0.59100  0.19400  0.57300  Biso   1.000  O 
  O14      1.0000 0.37900  0.39700  0.57300  Biso   1.000  O 
  O15      1.0000 0.17600  0.98200  0.57300  Biso   1.000  O 
  O16      1.0000 0.87700  0.12700  0.74000  Biso   1.000  O 
  O17      1.0000 0.61200  0.75000  0.74000  Biso   1.000  O 
  O18      1.0000 0.99000  0.86300  0.74000  Biso   1.000  O 
  O19      1.0000 0.96600  0.46300  0.79700  Biso   1.000  O 
  O20      1.0000 0.33400  0.50300  0.79700  Biso   1.000  O 
  O21      1.0000 0.29400  0.83100  0.79700  Biso   1.000  O 
  O22      1.0000 0.36500  0.15800  0.89400  Biso   1.000  O 
  O23      1.0000 0.73600  0.20600  0.89400  Biso   1.000  O 
  O24      1.0000 0.68800  0.53000  0.89400  Biso   1.000  O 
  S1       1.0000 0.79100  0.04020  0.24800  Biso   1.000  S 
  S2       1.0000 0.49700  0.45700  0.24800  Biso   1.000  S 
  S3       1.0000 0.20800  0.75100  0.24800  Biso   1.000  S 
  S4       1.0000 0.79200  0.24900  0.75200  Biso   1.000  S 
  S5       1.0000 0.50300  0.54300  0.75200  Biso   1.000  S 
  S6       1.0000 0.20900  0.96000  0.75200  Biso   1.000  S 
