data_image0
_cell_length_a       13.5225
_cell_length_b       5.37063
_cell_length_c       4.92922
_cell_angle_alpha    81.5338
_cell_angle_beta     106.347
_cell_angle_gamma    130.307

_symmetry_space_group_name_H-M    "P 1"
_symmetry_int_tables_number       1

loop_
  _symmetry_equiv_pos_as_xyz
  'x, y, z'

loop_
  _atom_site_label
  _atom_site_occupancy
  _atom_site_fract_x
  _atom_site_fract_y
  _atom_site_fract_z
  _atom_site_thermal_displace_type
  _atom_site_B_iso_or_equiv
  _atom_site_type_symbol
  Mg1      1.0000 0.41600  0.62100  0.42500  Biso   1.000  Mg
  Mg2      1.0000 0.91400  0.61800  0.48100  Biso   1.000  Mg
  Mg3      1.0000 0.08580  0.38200  0.51900  Biso   1.000  Mg
  Mg4      1.0000 0.58400  0.37900  0.57500  Biso   1.000  Mg
  O1       1.0000 0.28900  0.21600  0.09860  Biso   1.000  O 
  O2       1.0000 0.77100  0.30700  0.16400  Biso   1.000  O 
  O3       1.0000 0.96400  0.00327  0.21100  Biso   1.000  O 
  O4       1.0000 0.46200  0.03910  0.23900  Biso   1.000  O 
  O5       1.0000 0.56400  0.68300  0.29600  Biso   1.000  O 
  O6       1.0000 0.06950  0.71100  0.31400  Biso   1.000  O 
  O7       1.0000 0.21900  0.39700  0.39200  Biso   1.000  O 
  O8       1.0000 0.78100  0.60300  0.60800  Biso   1.000  O 
  O9       1.0000 0.93000  0.28900  0.68600  Biso   1.000  O 
  O10      1.0000 0.43600  0.31700  0.70400  Biso   1.000  O 
  O11      1.0000 0.53800  0.96100  0.76100  Biso   1.000  O 
  O12      1.0000 0.03580  0.99700  0.78900  Biso   1.000  O 
  O13      1.0000 0.22900  0.69300  0.83600  Biso   1.000  O 
  O14      1.0000 0.71100  0.78400  0.90100  Biso   1.000  O 
  V1       1.0000 0.64100  0.93000  0.03250  Biso   1.000  V 
  V2       1.0000 0.13200  0.06940  0.15200  Biso   1.000  V 
  V3       1.0000 0.86800  0.93100  0.84800  Biso   1.000  V 
  V4       1.0000 0.35900  0.07040  0.96700  Biso   1.000  V 
