data_image0
_cell_length_a       5.4768
_cell_length_b       5.4768
_cell_length_c       17.2775
_cell_angle_alpha    90
_cell_angle_beta     90
_cell_angle_gamma    90

_symmetry_space_group_name_H-M    "P 1"
_symmetry_int_tables_number       1

loop_
  _symmetry_equiv_pos_as_xyz
  'x, y, z'

loop_
  _atom_site_label
  _atom_site_occupancy
  _atom_site_fract_x
  _atom_site_fract_y
  _atom_site_fract_z
  _atom_site_thermal_displace_type
  _atom_site_B_iso_or_equiv
  _atom_site_type_symbol
  Mn1      1.0000 0.00000  0.00000  0.25000  Biso   1.000  Mn
  Mn2      1.0000 0.00000  0.00000  0.75000  Biso   1.000  Mn
  Mn3      1.0000 0.00000  0.00000  0.00000  Biso   1.000  Mn
  Mn4      1.0000 0.00000  0.00000  0.50000  Biso   1.000  Mn
  Mn5      1.0000 0.50000  0.50000  0.13000  Biso   1.000  Mn
  Mn6      1.0000 0.50000  0.50000  0.37000  Biso   1.000  Mn
  Mn7      1.0000 0.50000  0.50000  0.63000  Biso   1.000  Mn
  Mn8      1.0000 0.50000  0.50000  0.87000  Biso   1.000  Mn
  Mn9      1.0000 0.00000  0.50000  0.06510  Biso   1.000  Mn
  Mn10     1.0000 0.50000  0.00000  0.43500  Biso   1.000  Mn
  Mn11     1.0000 0.00000  0.50000  0.56500  Biso   1.000  Mn
  Mn12     1.0000 0.50000  0.00000  0.93500  Biso   1.000  Mn
  Mn13     1.0000 0.00000  0.50000  0.30900  Biso   1.000  Mn
  Mn14     1.0000 0.50000  0.00000  0.19100  Biso   1.000  Mn
  Mn15     1.0000 0.00000  0.50000  0.80900  Biso   1.000  Mn
  Mn16     1.0000 0.50000  0.00000  0.69100  Biso   1.000  Mn
  Si1      1.0000 0.15900  0.67900  0.18200  Biso   1.000  Si
  Si2      1.0000 0.84100  0.32100  0.18200  Biso   1.000  Si
  Si3      1.0000 0.32100  0.84100  0.31800  Biso   1.000  Si
  Si4      1.0000 0.67900  0.15900  0.31800  Biso   1.000  Si
  Si5      1.0000 0.84100  0.67900  0.68200  Biso   1.000  Si
  Si6      1.0000 0.15900  0.32100  0.68200  Biso   1.000  Si
  Si7      1.0000 0.32100  0.15900  0.81800  Biso   1.000  Si
  Si8      1.0000 0.67900  0.84100  0.81800  Biso   1.000  Si
  Si9      1.0000 0.19900  0.15500  0.11300  Biso   1.000  Si
  Si10     1.0000 0.80100  0.84500  0.11300  Biso   1.000  Si
  Si11     1.0000 0.84500  0.80100  0.38700  Biso   1.000  Si
  Si12     1.0000 0.15500  0.19900  0.38700  Biso   1.000  Si
  Si13     1.0000 0.80100  0.15500  0.61300  Biso   1.000  Si
  Si14     1.0000 0.19900  0.84500  0.61300  Biso   1.000  Si
  Si15     1.0000 0.84500  0.19900  0.88700  Biso   1.000  Si
  Si16     1.0000 0.15500  0.80100  0.88700  Biso   1.000  Si
  Si17     1.0000 0.34700  0.77000  0.03900  Biso   1.000  Si
  Si18     1.0000 0.65300  0.23000  0.03900  Biso   1.000  Si
  Si19     1.0000 0.23000  0.65300  0.46100  Biso   1.000  Si
  Si20     1.0000 0.77000  0.34700  0.46100  Biso   1.000  Si
  Si21     1.0000 0.65300  0.77000  0.53900  Biso   1.000  Si
  Si22     1.0000 0.34700  0.23000  0.53900  Biso   1.000  Si
  Si23     1.0000 0.23000  0.34700  0.96100  Biso   1.000  Si
  Si24     1.0000 0.77000  0.65300  0.96100  Biso   1.000  Si
  Si25     1.0000 0.33300  0.33300  0.25000  Biso   1.000  Si
  Si26     1.0000 0.66700  0.66700  0.25000  Biso   1.000  Si
  Si27     1.0000 0.66700  0.33300  0.75000  Biso   1.000  Si
  Si28     1.0000 0.33300  0.66700  0.75000  Biso   1.000  Si
