data_image0
_cell_length_a       6.15709
_cell_length_b       6.15709
_cell_length_c       6.63724
_cell_angle_alpha    62.3655
_cell_angle_beta     117.634
_cell_angle_gamma    120

_symmetry_space_group_name_H-M    "P 1"
_symmetry_int_tables_number       1

loop_
  _symmetry_equiv_pos_as_xyz
  'x, y, z'

loop_
  _atom_site_label
  _atom_site_occupancy
  _atom_site_fract_x
  _atom_site_fract_y
  _atom_site_fract_z
  _atom_site_thermal_displace_type
  _atom_site_B_iso_or_equiv
  _atom_site_type_symbol
  Cl1      1.0000 0.77200  0.61600  0.23700  Biso   1.000  Cl
  Cl2      1.0000 0.38400  0.91900  0.23700  Biso   1.000  Cl
  Cl3      1.0000 0.08110  0.22800  0.23700  Biso   1.000  Cl
  Cl4      1.0000 0.91900  0.77200  0.76300  Biso   1.000  Cl
  Cl5      1.0000 0.61600  0.08110  0.76300  Biso   1.000  Cl
  Cl6      1.0000 0.22800  0.38400  0.76300  Biso   1.000  Cl
  W1       1.0000 0.00000  0.00000  0.00000  Biso   1.000  W 
