data_image0
_cell_length_a       7.46448
_cell_length_b       7.46448
_cell_length_c       5.10461
_cell_angle_alpha    90
_cell_angle_beta     90
_cell_angle_gamma    119.988

_symmetry_space_group_name_H-M    "P 1"
_symmetry_int_tables_number       1

loop_
  _symmetry_equiv_pos_as_xyz
  'x, y, z'

loop_
  _atom_site_label
  _atom_site_occupancy
  _atom_site_fract_x
  _atom_site_fract_y
  _atom_site_fract_z
  _atom_site_thermal_displace_type
  _atom_site_B_iso_or_equiv
  _atom_site_type_symbol
  Si1      1.0000 0.60800  0.00000  0.25000  Biso   1.000  Si
  Si2      1.0000 0.39200  0.39200  0.25000  Biso   1.000  Si
  Si3      1.0000 0.00000  0.60800  0.25000  Biso   1.000  Si
  Si4      1.0000 0.39200  0.00000  0.75000  Biso   1.000  Si
  Si5      1.0000 0.00000  0.39200  0.75000  Biso   1.000  Si
  Si6      1.0000 0.60800  0.60800  0.75000  Biso   1.000  Si
  Ti1      1.0000 0.66700  0.33300  0.00000  Biso   1.000  Ti
  Ti2      1.0000 0.33300  0.66700  0.00000  Biso   1.000  Ti
  Ti3      1.0000 0.25000  0.00000  0.25000  Biso   1.000  Ti
  Ti4      1.0000 0.00000  0.25000  0.25000  Biso   1.000  Ti
  Ti5      1.0000 0.75000  0.75000  0.25000  Biso   1.000  Ti
  Ti6      1.0000 0.66700  0.33300  0.50000  Biso   1.000  Ti
  Ti7      1.0000 0.33300  0.66700  0.50000  Biso   1.000  Ti
  Ti8      1.0000 0.75000  0.00000  0.75000  Biso   1.000  Ti
  Ti9      1.0000 0.00000  0.75000  0.75000  Biso   1.000  Ti
  Ti10     1.0000 0.25000  0.25000  0.75000  Biso   1.000  Ti
