data_image0
_cell_length_a       5.85677
_cell_length_b       5.85677
_cell_length_c       5.85677
_cell_angle_alpha    93.2674
_cell_angle_beta     118.132
_cell_angle_gamma    118.132

_symmetry_space_group_name_H-M    "P 1"
_symmetry_int_tables_number       1

loop_
  _symmetry_equiv_pos_as_xyz
  'x, y, z'

loop_
  _atom_site_label
  _atom_site_occupancy
  _atom_site_fract_x
  _atom_site_fract_y
  _atom_site_fract_z
  _atom_site_thermal_displace_type
  _atom_site_B_iso_or_equiv
  _atom_site_type_symbol
  Cr1      1.0000 0.00000  0.00000  0.00000  Biso   1.000  Cr
  K1       1.0000 0.50000  0.75000  0.25000  Biso   1.000  K 
  K2       1.0000 1.00000  0.50000  0.50000  Biso   1.000  K 
  K3       1.0000 0.50000  0.25000  0.75000  Biso   1.000  K 
  O1       1.0000 0.34900  0.06490  0.06490  Biso   1.000  O 
  O2       1.0000 1.00000  0.93500  0.28400  Biso   1.000  O 
  O3       1.0000 0.65100  0.71600  0.71600  Biso   1.000  O 
  O4       1.0000 1.00000  0.28400  0.93500  Biso   1.000  O 
