data_image0
_cell_length_a       4.80983
_cell_length_b       4.80983
_cell_length_c       6.42761
_cell_angle_alpha    90
_cell_angle_beta     90
_cell_angle_gamma    87.5198

_symmetry_space_group_name_H-M    "P 1"
_symmetry_int_tables_number       1

loop_
  _symmetry_equiv_pos_as_xyz
  'x, y, z'

loop_
  _atom_site_label
  _atom_site_occupancy
  _atom_site_fract_x
  _atom_site_fract_y
  _atom_site_fract_z
  _atom_site_thermal_displace_type
  _atom_site_B_iso_or_equiv
  _atom_site_type_symbol
  K1       1.0000 0.91000  0.41000  0.25000  Biso   1.000  K 
  K2       1.0000 0.41000  0.91000  0.25000  Biso   1.000  K 
  K3       1.0000 0.59000  0.09010  0.75000  Biso   1.000  K 
  K4       1.0000 0.09010  0.59000  0.75000  Biso   1.000  K 
  O1       1.0000 0.91100  0.91100  0.06810  Biso   1.000  O 
  O2       1.0000 0.41100  0.41100  0.43200  Biso   1.000  O 
  O3       1.0000 0.58900  0.58900  0.56800  Biso   1.000  O 
  O4       1.0000 0.08910  0.08910  0.93200  Biso   1.000  O 
