data_image0
_cell_length_a       11.3057
_cell_length_b       10.7963
_cell_length_c       6.07496
_cell_angle_alpha    90
_cell_angle_beta     90
_cell_angle_gamma    90

_symmetry_space_group_name_H-M    "P 1"
_symmetry_int_tables_number       1

loop_
  _symmetry_equiv_pos_as_xyz
  'x, y, z'

loop_
  _atom_site_label
  _atom_site_occupancy
  _atom_site_fract_x
  _atom_site_fract_y
  _atom_site_fract_z
  _atom_site_thermal_displace_type
  _atom_site_B_iso_or_equiv
  _atom_site_type_symbol
  C1       1.0000 0.76800  0.11500  0.06730  Biso   1.000  C 
  C2       1.0000 0.76800  0.38500  0.06730  Biso   1.000  C 
  C3       1.0000 0.72700  0.75000  0.15900  Biso   1.000  C 
  C4       1.0000 0.01890  0.61600  0.19100  Biso   1.000  C 
  C5       1.0000 0.01890  0.88400  0.19100  Biso   1.000  C 
  C6       1.0000 0.97200  0.25000  0.21900  Biso   1.000  C 
  C7       1.0000 0.47200  0.25000  0.28100  Biso   1.000  C 
  C8       1.0000 0.51900  0.61600  0.30900  Biso   1.000  C 
  C9       1.0000 0.51900  0.88400  0.30900  Biso   1.000  C 
  C10      1.0000 0.22700  0.75000  0.34100  Biso   1.000  C 
  C11      1.0000 0.26800  0.11500  0.43300  Biso   1.000  C 
  C12      1.0000 0.26800  0.38500  0.43300  Biso   1.000  C 
  C13      1.0000 0.73200  0.61500  0.56700  Biso   1.000  C 
  C14      1.0000 0.73200  0.88500  0.56700  Biso   1.000  C 
  C15      1.0000 0.77300  0.25000  0.65900  Biso   1.000  C 
  C16      1.0000 0.48100  0.11600  0.69100  Biso   1.000  C 
  C17      1.0000 0.48100  0.38400  0.69100  Biso   1.000  C 
  C18      1.0000 0.52800  0.75000  0.71900  Biso   1.000  C 
  C19      1.0000 0.02790  0.75000  0.78100  Biso   1.000  C 
  C20      1.0000 0.98100  0.11600  0.80900  Biso   1.000  C 
  C21      1.0000 0.98100  0.38400  0.80900  Biso   1.000  C 
  C22      1.0000 0.27300  0.25000  0.84100  Biso   1.000  C 
  C23      1.0000 0.23200  0.61500  0.93300  Biso   1.000  C 
  C24      1.0000 0.23200  0.88500  0.93300  Biso   1.000  C 
  O1       1.0000 0.78400  0.75000  0.00122  Biso   1.000  O 
  O2       1.0000 0.52700  0.25000  0.12000  Biso   1.000  O 
  O3       1.0000 0.70900  0.03830  0.14100  Biso   1.000  O 
  O4       1.0000 0.70900  0.46200  0.14100  Biso   1.000  O 
  O5       1.0000 0.45700  0.54000  0.23700  Biso   1.000  O 
  O6       1.0000 0.45700  0.96000  0.23700  Biso   1.000  O 
  O7       1.0000 0.95700  0.54000  0.26300  Biso   1.000  O 
  O8       1.0000 0.95700  0.96000  0.26300  Biso   1.000  O 
  O9       1.0000 0.20900  0.03830  0.35900  Biso   1.000  O 
  O10      1.0000 0.20900  0.46200  0.35900  Biso   1.000  O 
  O11      1.0000 0.02680  0.25000  0.38000  Biso   1.000  O 
  O12      1.0000 0.28400  0.75000  0.49900  Biso   1.000  O 
  O13      1.0000 0.71600  0.25000  0.50100  Biso   1.000  O 
  O14      1.0000 0.97300  0.75000  0.62000  Biso   1.000  O 
  O15      1.0000 0.79100  0.53800  0.64100  Biso   1.000  O 
  O16      1.0000 0.79100  0.96200  0.64100  Biso   1.000  O 
  O17      1.0000 0.04250  0.04050  0.73700  Biso   1.000  O 
  O18      1.0000 0.04250  0.46000  0.73700  Biso   1.000  O 
  O19      1.0000 0.54300  0.04050  0.76300  Biso   1.000  O 
  O20      1.0000 0.54300  0.46000  0.76300  Biso   1.000  O 
  O21      1.0000 0.29100  0.53800  0.85900  Biso   1.000  O 
  O22      1.0000 0.29100  0.96200  0.85900  Biso   1.000  O 
  O23      1.0000 0.47300  0.75000  0.88000  Biso   1.000  O 
  O24      1.0000 0.21600  0.25000  0.99900  Biso   1.000  O 
  W1       1.0000 0.12600  0.75000  0.06240  Biso   1.000  W 
  W2       1.0000 0.62600  0.75000  0.43800  Biso   1.000  W 
  W3       1.0000 0.37400  0.25000  0.56200  Biso   1.000  W 
  W4       1.0000 0.87400  0.25000  0.93800  Biso   1.000  W 
