data_image0
_cell_length_a       12.6544
_cell_length_b       10.7138
_cell_length_c       10.7138
_cell_angle_alpha    90
_cell_angle_beta     115.045
_cell_angle_gamma    115.045

_symmetry_space_group_name_H-M    "P 1"
_symmetry_int_tables_number       1

loop_
  _symmetry_equiv_pos_as_xyz
  'x, y, z'

loop_
  _atom_site_label
  _atom_site_occupancy
  _atom_site_fract_x
  _atom_site_fract_y
  _atom_site_fract_z
  _atom_site_thermal_displace_type
  _atom_site_B_iso_or_equiv
  _atom_site_type_symbol
  Cs1      1.0000 0.75000  0.12500  0.15600  Biso   1.000  Cs
  Cs2      1.0000 0.49000  0.24500  0.24500  Biso   1.000  Cs
  Cs3      1.0000 0.25000  0.84400  0.37500  Biso   1.000  Cs
  Cs4      1.0000 0.01010  0.00504  0.50500  Biso   1.000  Cs
  Cs5      1.0000 0.75000  0.62500  0.59400  Biso   1.000  Cs
  Cs6      1.0000 0.51000  0.75500  0.75500  Biso   1.000  Cs
  Cs7      1.0000 0.25000  0.40600  0.87500  Biso   1.000  Cs
  Cs8      1.0000 0.99000  0.49500  0.99500  Biso   1.000  Cs
  O1       1.0000 0.19300  0.81000  0.04490  Biso   1.000  O 
  O2       1.0000 0.95200  0.14300  0.04790  Biso   1.000  O 
  O3       1.0000 0.52700  0.76900  0.05940  Biso   1.000  O 
  O4       1.0000 0.89300  0.65700  0.11700  Biso   1.000  O 
  O5       1.0000 0.69300  0.39800  0.13300  Biso   1.000  O 
  O6       1.0000 0.19300  0.38300  0.14800  Biso   1.000  O 
  O7       1.0000 0.29600  0.64800  0.14800  Biso   1.000  O 
  O8       1.0000 0.80700  0.85200  0.19000  Biso   1.000  O 
  O9       1.0000 0.04830  0.95200  0.19100  Biso   1.000  O 
  O10      1.0000 0.47300  0.53300  0.23100  Biso   1.000  O 
  O11      1.0000 0.47300  0.94100  0.24200  Biso   1.000  O 
  O12      1.0000 0.97300  0.48100  0.28300  Biso   1.000  O 
  O13      1.0000 0.10700  0.22400  0.34300  Biso   1.000  O 
  O14      1.0000 0.70400  0.85200  0.35200  Biso   1.000  O 
  O15      1.0000 0.79600  0.39800  0.39800  Biso   1.000  O 
  O16      1.0000 0.39300  0.36700  0.40700  Biso   1.000  O 
  O17      1.0000 0.52700  0.75800  0.46700  Biso   1.000  O 
  O18      1.0000 0.02680  0.71700  0.50800  Biso   1.000  O 
  O19      1.0000 0.02680  0.30900  0.51900  Biso   1.000  O 
  O20      1.0000 0.45200  0.15400  0.55900  Biso   1.000  O 
  O21      1.0000 0.69300  0.29500  0.56000  Biso   1.000  O 
  O22      1.0000 0.20400  0.60200  0.60200  Biso   1.000  O 
  O23      1.0000 0.30700  0.44000  0.60200  Biso   1.000  O 
  O24      1.0000 0.80700  0.95500  0.61700  Biso   1.000  O 
  O25      1.0000 0.60700  0.01340  0.63300  Biso   1.000  O 
  O26      1.0000 0.97300  0.49200  0.69100  Biso   1.000  O 
  O27      1.0000 0.54800  0.44100  0.70200  Biso   1.000  O 
  O28      1.0000 0.30700  0.86700  0.70500  Biso   1.000  O 
  O29      1.0000 0.10700  0.88300  0.76300  Biso   1.000  O 
  O30      1.0000 0.89300  0.23700  0.77600  Biso   1.000  O 
  O31      1.0000 0.54800  0.10700  0.84600  Biso   1.000  O 
  O32      1.0000 0.04830  0.09620  0.85700  Biso   1.000  O 
  O33      1.0000 0.45200  0.29800  0.89300  Biso   1.000  O 
  O34      1.0000 0.95200  0.80900  0.90400  Biso   1.000  O 
  O35      1.0000 0.60700  0.59300  0.97400  Biso   1.000  O 
  O36      1.0000 0.39300  0.02630  0.98700  Biso   1.000  O 
  Te1      1.0000 0.87400  0.81600  0.05900  Biso   1.000  Te
  Te2      1.0000 0.35900  0.81400  0.06630  Biso   1.000  Te
  Te3      1.0000 0.12600  0.18500  0.18400  Biso   1.000  Te
  Te4      1.0000 0.64100  0.70800  0.18600  Biso   1.000  Te
  Te5      1.0000 0.35900  0.54400  0.29200  Biso   1.000  Te
  Te6      1.0000 0.85900  0.54200  0.29400  Biso   1.000  Te
  Te7      1.0000 0.64100  0.93400  0.45600  Biso   1.000  Te
  Te8      1.0000 0.14100  0.43600  0.45800  Biso   1.000  Te
  Te9      1.0000 0.85900  0.31600  0.56400  Biso   1.000  Te
  Te10     1.0000 0.37400  0.30900  0.56600  Biso   1.000  Te
  Te11     1.0000 0.14100  0.70600  0.68400  Biso   1.000  Te
  Te12     1.0000 0.62600  0.19200  0.69100  Biso   1.000  Te
  Te13     1.0000 0.37400  0.06530  0.80800  Biso   1.000  Te
  Te14     1.0000 0.87400  0.05810  0.81500  Biso   1.000  Te
  Te15     1.0000 0.62600  0.43400  0.93500  Biso   1.000  Te
  Te16     1.0000 0.12600  0.94100  0.94200  Biso   1.000  Te
