data_image0
_cell_length_a       4.91507
_cell_length_b       4.91507
_cell_length_c       11.3936
_cell_angle_alpha    90
_cell_angle_beta     90
_cell_angle_gamma    120

_symmetry_space_group_name_H-M    "P 1"
_symmetry_int_tables_number       1

loop_
  _symmetry_equiv_pos_as_xyz
  'x, y, z'

loop_
  _atom_site_label
  _atom_site_occupancy
  _atom_site_fract_x
  _atom_site_fract_y
  _atom_site_fract_z
  _atom_site_thermal_displace_type
  _atom_site_B_iso_or_equiv
  _atom_site_type_symbol
  As1      1.0000 0.00000  0.44200  0.16700  Biso   1.000  As
  As2      1.0000 0.55800  0.55800  0.50000  Biso   1.000  As
  As3      1.0000 0.44200  0.00000  0.83300  Biso   1.000  As
  Ga1      1.0000 0.55600  0.55600  0.00002  Biso   1.000  Ga
  Ga2      1.0000 0.44400  0.00001  0.33300  Biso   1.000  Ga
  Ga3      1.0000 0.00000  0.44400  0.66700  Biso   1.000  Ga
  O1       1.0000 0.94100  0.61500  0.04600  Biso   1.000  O 
  O2       1.0000 0.30800  0.38700  0.13200  Biso   1.000  O 
  O3       1.0000 0.69200  0.07890  0.20100  Biso   1.000  O 
  O4       1.0000 0.05930  0.67400  0.28700  Biso   1.000  O 
  O5       1.0000 0.38500  0.32600  0.37900  Biso   1.000  O 
  O6       1.0000 0.61300  0.92100  0.46600  Biso   1.000  O 
  O7       1.0000 0.92100  0.61300  0.53400  Biso   1.000  O 
  O8       1.0000 0.32600  0.38500  0.62100  Biso   1.000  O 
  O9       1.0000 0.67400  0.05930  0.71300  Biso   1.000  O 
  O10      1.0000 0.07890  0.69200  0.79900  Biso   1.000  O 
  O11      1.0000 0.38700  0.30800  0.86800  Biso   1.000  O 
  O12      1.0000 0.61500  0.94100  0.95400  Biso   1.000  O 
