data_image0
_cell_length_a       4.02769
_cell_length_b       4.02769
_cell_length_c       7.8303
_cell_angle_alpha    99.8377
_cell_angle_beta     80.1623
_cell_angle_gamma    105.163

_symmetry_space_group_name_H-M    "P 1"
_symmetry_int_tables_number       1

loop_
  _symmetry_equiv_pos_as_xyz
  'x, y, z'

loop_
  _atom_site_label
  _atom_site_occupancy
  _atom_site_fract_x
  _atom_site_fract_y
  _atom_site_fract_z
  _atom_site_thermal_displace_type
  _atom_site_B_iso_or_equiv
  _atom_site_type_symbol
  B1       1.0000 0.31200  0.84500  0.05910  Biso   1.000  B 
  B2       1.0000 0.07350  0.07350  0.25000  Biso   1.000  B 
  B3       1.0000 0.84500  0.31200  0.44100  Biso   1.000  B 
  B4       1.0000 0.15500  0.68800  0.55900  Biso   1.000  B 
  B5       1.0000 0.92600  0.92600  0.75000  Biso   1.000  B 
  B6       1.0000 0.68800  0.15500  0.94100  Biso   1.000  B 
  Ni1      1.0000 0.79700  0.70800  0.01200  Biso   1.000  Ni
  Ni2      1.0000 0.63200  0.22200  0.21200  Biso   1.000  Ni
  Ni3      1.0000 0.22200  0.63200  0.28800  Biso   1.000  Ni
  Ni4      1.0000 0.70800  0.79700  0.48800  Biso   1.000  Ni
  Ni5      1.0000 0.29200  0.20300  0.51200  Biso   1.000  Ni
  Ni6      1.0000 0.77800  0.36800  0.71200  Biso   1.000  Ni
  Ni7      1.0000 0.36800  0.77800  0.78800  Biso   1.000  Ni
  Ni8      1.0000 0.20300  0.29200  0.98800  Biso   1.000  Ni
