data_image0
_cell_length_a       8.99149
_cell_length_b       8.15688
_cell_length_c       4.71282
_cell_angle_alpha    90
_cell_angle_beta     90
_cell_angle_gamma    90

_symmetry_space_group_name_H-M    "P 1"
_symmetry_int_tables_number       1

loop_
  _symmetry_equiv_pos_as_xyz
  'x, y, z'

loop_
  _atom_site_label
  _atom_site_occupancy
  _atom_site_fract_x
  _atom_site_fract_y
  _atom_site_fract_z
  _atom_site_thermal_displace_type
  _atom_site_B_iso_or_equiv
  _atom_site_type_symbol
  F1       1.0000 0.75800  0.25000  0.06560  Biso   1.000  F 
  F2       1.0000 0.74100  0.57600  0.08520  Biso   1.000  F 
  F3       1.0000 0.74100  0.92400  0.08520  Biso   1.000  F 
  F4       1.0000 0.49800  0.75000  0.23100  Biso   1.000  F 
  F5       1.0000 0.49600  0.07650  0.24800  Biso   1.000  F 
  F6       1.0000 0.49600  0.42300  0.24800  Biso   1.000  F 
  F7       1.0000 0.99600  0.07650  0.25200  Biso   1.000  F 
  F8       1.0000 0.99600  0.42300  0.25200  Biso   1.000  F 
  F9       1.0000 0.99800  0.75000  0.26900  Biso   1.000  F 
  F10      1.0000 0.24100  0.57600  0.41500  Biso   1.000  F 
  F11      1.0000 0.24100  0.92400  0.41500  Biso   1.000  F 
  F12      1.0000 0.25800  0.25000  0.43400  Biso   1.000  F 
  F13      1.0000 0.74200  0.75000  0.56600  Biso   1.000  F 
  F14      1.0000 0.75900  0.07620  0.58500  Biso   1.000  F 
  F15      1.0000 0.75900  0.42400  0.58500  Biso   1.000  F 
  F16      1.0000 0.00157  0.25000  0.73100  Biso   1.000  F 
  F17      1.0000 0.00448  0.57700  0.74800  Biso   1.000  F 
  F18      1.0000 0.00448  0.92300  0.74800  Biso   1.000  F 
  F19      1.0000 0.50400  0.57700  0.75200  Biso   1.000  F 
  F20      1.0000 0.50400  0.92300  0.75200  Biso   1.000  F 
  F21      1.0000 0.50200  0.25000  0.76900  Biso   1.000  F 
  F22      1.0000 0.25900  0.07620  0.91500  Biso   1.000  F 
  F23      1.0000 0.25900  0.42400  0.91500  Biso   1.000  F 
  F24      1.0000 0.24200  0.75000  0.93400  Biso   1.000  F 
  U1       1.0000 0.12800  0.25000  0.08420  Biso   1.000  U 
  U2       1.0000 0.62800  0.25000  0.41600  Biso   1.000  U 
  U3       1.0000 0.37200  0.75000  0.58400  Biso   1.000  U 
  U4       1.0000 0.87200  0.75000  0.91600  Biso   1.000  U 
