data_image0
_cell_length_a       5.56861
_cell_length_b       5.56861
_cell_length_c       21.7979
_cell_angle_alpha    90
_cell_angle_beta     90
_cell_angle_gamma    120

_symmetry_space_group_name_H-M    "P 1"
_symmetry_int_tables_number       1

loop_
  _symmetry_equiv_pos_as_xyz
  'x, y, z'

loop_
  _atom_site_label
  _atom_site_occupancy
  _atom_site_fract_x
  _atom_site_fract_y
  _atom_site_fract_z
  _atom_site_thermal_displace_type
  _atom_site_B_iso_or_equiv
  _atom_site_type_symbol
  Al1      1.0000 0.00000  0.00000  0.00000  Biso   1.000  Al
  Al2      1.0000 0.66700  0.33300  0.02850  Biso   1.000  Al
  Al3      1.0000 0.16800  0.33600  0.11000  Biso   1.000  Al
  Al4      1.0000 0.16800  0.83200  0.11000  Biso   1.000  Al
  Al5      1.0000 0.66400  0.83200  0.11000  Biso   1.000  Al
  Al6      1.0000 0.66700  0.33300  0.19100  Biso   1.000  Al
  Al7      1.0000 0.00000  0.00000  0.25000  Biso   1.000  Al
  Al8      1.0000 0.66700  0.33300  0.30900  Biso   1.000  Al
  Al9      1.0000 0.16800  0.33600  0.39000  Biso   1.000  Al
  Al10     1.0000 0.16800  0.83200  0.39000  Biso   1.000  Al
  Al11     1.0000 0.66400  0.83200  0.39000  Biso   1.000  Al
  Al12     1.0000 0.66700  0.33300  0.47100  Biso   1.000  Al
  Al13     1.0000 0.00000  0.00000  0.50000  Biso   1.000  Al
  Al14     1.0000 0.33300  0.66700  0.52900  Biso   1.000  Al
  Al15     1.0000 0.33600  0.16800  0.61000  Biso   1.000  Al
  Al16     1.0000 0.83200  0.16800  0.61000  Biso   1.000  Al
  Al17     1.0000 0.83200  0.66400  0.61000  Biso   1.000  Al
  Al18     1.0000 0.33300  0.66700  0.69100  Biso   1.000  Al
  Al19     1.0000 0.00000  0.00000  0.75000  Biso   1.000  Al
  Al20     1.0000 0.33300  0.66700  0.80900  Biso   1.000  Al
  Al21     1.0000 0.33600  0.16800  0.89000  Biso   1.000  Al
  Al22     1.0000 0.83200  0.16800  0.89000  Biso   1.000  Al
  Al23     1.0000 0.83200  0.66400  0.89000  Biso   1.000  Al
  Al24     1.0000 0.33300  0.66700  0.97100  Biso   1.000  Al
  Ca1      1.0000 0.33300  0.66700  0.25000  Biso   1.000  Ca
  Ca2      1.0000 0.66700  0.33300  0.75000  Biso   1.000  Ca
  O1       1.0000 0.31000  0.15500  0.05250  Biso   1.000  O 
  O2       1.0000 0.84500  0.15500  0.05250  Biso   1.000  O 
  O3       1.0000 0.84500  0.69000  0.05250  Biso   1.000  O 
  O4       1.0000 0.33300  0.66700  0.05450  Biso   1.000  O 
  O5       1.0000 0.00679  0.50300  0.15000  Biso   1.000  O 
  O6       1.0000 0.49700  0.50300  0.15000  Biso   1.000  O 
  O7       1.0000 0.49700  0.99300  0.15000  Biso   1.000  O 
  O8       1.0000 0.00000  0.00000  0.15100  Biso   1.000  O 
  O9       1.0000 0.36400  0.18200  0.25000  Biso   1.000  O 
  O10      1.0000 0.81800  0.18200  0.25000  Biso   1.000  O 
  O11      1.0000 0.81800  0.63600  0.25000  Biso   1.000  O 
  O12      1.0000 0.00000  0.00000  0.34900  Biso   1.000  O 
  O13      1.0000 0.00679  0.50300  0.35000  Biso   1.000  O 
  O14      1.0000 0.49700  0.50300  0.35000  Biso   1.000  O 
  O15      1.0000 0.49700  0.99300  0.35000  Biso   1.000  O 
  O16      1.0000 0.33300  0.66700  0.44500  Biso   1.000  O 
  O17      1.0000 0.31000  0.15500  0.44700  Biso   1.000  O 
  O18      1.0000 0.84500  0.15500  0.44700  Biso   1.000  O 
  O19      1.0000 0.84500  0.69000  0.44700  Biso   1.000  O 
  O20      1.0000 0.15500  0.31000  0.55300  Biso   1.000  O 
  O21      1.0000 0.15500  0.84500  0.55300  Biso   1.000  O 
  O22      1.0000 0.69000  0.84500  0.55300  Biso   1.000  O 
  O23      1.0000 0.66700  0.33300  0.55500  Biso   1.000  O 
  O24      1.0000 0.50300  0.00679  0.65000  Biso   1.000  O 
  O25      1.0000 0.50300  0.49700  0.65000  Biso   1.000  O 
  O26      1.0000 0.99300  0.49700  0.65000  Biso   1.000  O 
  O27      1.0000 0.00000  0.00000  0.65100  Biso   1.000  O 
  O28      1.0000 0.18200  0.36400  0.75000  Biso   1.000  O 
  O29      1.0000 0.18200  0.81800  0.75000  Biso   1.000  O 
  O30      1.0000 0.63600  0.81800  0.75000  Biso   1.000  O 
  O31      1.0000 0.00000  0.00000  0.84900  Biso   1.000  O 
  O32      1.0000 0.50300  0.00679  0.85000  Biso   1.000  O 
  O33      1.0000 0.50300  0.49700  0.85000  Biso   1.000  O 
  O34      1.0000 0.99300  0.49700  0.85000  Biso   1.000  O 
  O35      1.0000 0.66700  0.33300  0.94500  Biso   1.000  O 
  O36      1.0000 0.15500  0.31000  0.94700  Biso   1.000  O 
  O37      1.0000 0.15500  0.84500  0.94700  Biso   1.000  O 
  O38      1.0000 0.69000  0.84500  0.94700  Biso   1.000  O 
