data_image0
_cell_length_a       11.3185
_cell_length_b       11.3185
_cell_length_c       11.3185
_cell_angle_alpha    109.471
_cell_angle_beta     109.471
_cell_angle_gamma    109.471

_symmetry_space_group_name_H-M    "P 1"
_symmetry_int_tables_number       1

loop_
  _symmetry_equiv_pos_as_xyz
  'x, y, z'

loop_
  _atom_site_label
  _atom_site_occupancy
  _atom_site_fract_x
  _atom_site_fract_y
  _atom_site_fract_z
  _atom_site_thermal_displace_type
  _atom_site_B_iso_or_equiv
  _atom_site_type_symbol
  Ba1      1.0000 0.04860  0.27500  0.00283  Biso   1.000  Ba
  Ba2      1.0000 0.49700  0.77200  0.04580  Biso   1.000  Ba
  Ba3      1.0000 0.27500  0.00283  0.04860  Biso   1.000  Ba
  Ba4      1.0000 0.27400  0.72800  0.22500  Biso   1.000  Ba
  Ba5      1.0000 0.45100  0.45400  0.22600  Biso   1.000  Ba
  Ba6      1.0000 0.95400  0.50300  0.22800  Biso   1.000  Ba
  Ba7      1.0000 0.77500  0.72600  0.27200  Biso   1.000  Ba
  Ba8      1.0000 0.72800  0.22500  0.27400  Biso   1.000  Ba
  Ba9      1.0000 0.00283  0.04860  0.27500  Biso   1.000  Ba
  Ba10     1.0000 0.45400  0.22600  0.45100  Biso   1.000  Ba
  Ba11     1.0000 0.22600  0.45100  0.45400  Biso   1.000  Ba
  Ba12     1.0000 0.77200  0.04580  0.49700  Biso   1.000  Ba
  Ba13     1.0000 0.22800  0.95400  0.50300  Biso   1.000  Ba
  Ba14     1.0000 0.77400  0.54900  0.54600  Biso   1.000  Ba
  Ba15     1.0000 0.54600  0.77400  0.54900  Biso   1.000  Ba
  Ba16     1.0000 0.99700  0.95100  0.72500  Biso   1.000  Ba
  Ba17     1.0000 0.27200  0.77500  0.72600  Biso   1.000  Ba
  Ba18     1.0000 0.22500  0.27400  0.72800  Biso   1.000  Ba
  Ba19     1.0000 0.04580  0.49700  0.77200  Biso   1.000  Ba
  Ba20     1.0000 0.54900  0.54600  0.77400  Biso   1.000  Ba
  Ba21     1.0000 0.72600  0.27200  0.77500  Biso   1.000  Ba
  Ba22     1.0000 0.72500  0.99700  0.95100  Biso   1.000  Ba
  Ba23     1.0000 0.50300  0.22800  0.95400  Biso   1.000  Ba
  Ba24     1.0000 0.95100  0.72500  0.99700  Biso   1.000  Ba
  N1       1.0000 0.50000  0.00000  0.00000  Biso   1.000  N 
  N2       1.0000 0.00000  0.50000  0.00000  Biso   1.000  N 
  N3       1.0000 0.75000  0.81300  0.06300  Biso   1.000  N 
  N4       1.0000 0.93700  0.25000  0.18700  Biso   1.000  N 
  N5       1.0000 0.18700  0.93700  0.25000  Biso   1.000  N 
  N6       1.0000 0.68700  0.43700  0.25000  Biso   1.000  N 
  N7       1.0000 0.56300  0.75000  0.31300  Biso   1.000  N 
  N8       1.0000 0.25000  0.68700  0.43700  Biso   1.000  N 
  N9       1.0000 0.50000  0.50000  0.50000  Biso   1.000  N 
  N10      1.0000 0.00000  0.00000  0.50000  Biso   1.000  N 
  N11      1.0000 0.75000  0.31300  0.56300  Biso   1.000  N 
  N12      1.0000 0.43700  0.25000  0.68700  Biso   1.000  N 
  N13      1.0000 0.81300  0.06300  0.75000  Biso   1.000  N 
  N14      1.0000 0.31300  0.56300  0.75000  Biso   1.000  N 
  N15      1.0000 0.06300  0.75000  0.81300  Biso   1.000  N 
  N16      1.0000 0.25000  0.18700  0.93700  Biso   1.000  N 
