data_image0
_cell_length_a       6.88849
_cell_length_b       6.88849
_cell_length_c       6.88849
_cell_angle_alpha    99.4883
_cell_angle_beta     99.4884
_cell_angle_gamma    99.4884

_symmetry_space_group_name_H-M    "P 1"
_symmetry_int_tables_number       1

loop_
  _symmetry_equiv_pos_as_xyz
  'x, y, z'

loop_
  _atom_site_label
  _atom_site_occupancy
  _atom_site_fract_x
  _atom_site_fract_y
  _atom_site_fract_z
  _atom_site_thermal_displace_type
  _atom_site_B_iso_or_equiv
  _atom_site_type_symbol
  O1       1.0000 0.93600  0.32600  0.05870  Biso   1.000  O 
  O2       1.0000 0.67400  0.94100  0.06440  Biso   1.000  O 
  O3       1.0000 0.43800  0.58000  0.17800  Biso   1.000  O 
  O4       1.0000 0.05870  0.93600  0.32600  Biso   1.000  O 
  O5       1.0000 0.82200  0.56200  0.42000  Biso   1.000  O 
  O6       1.0000 0.58000  0.17800  0.43800  Biso   1.000  O 
  O7       1.0000 0.42000  0.82200  0.56200  Biso   1.000  O 
  O8       1.0000 0.17800  0.43800  0.58000  Biso   1.000  O 
  O9       1.0000 0.94100  0.06440  0.67400  Biso   1.000  O 
  O10      1.0000 0.56200  0.42000  0.82200  Biso   1.000  O 
  O11      1.0000 0.32600  0.05870  0.93600  Biso   1.000  O 
  O12      1.0000 0.06440  0.67400  0.94100  Biso   1.000  O 
  Pr1      1.0000 0.00000  0.00000  0.00000  Biso   1.000  Pr
  Pr2      1.0000 0.60800  0.30100  0.13900  Biso   1.000  Pr
  Pr3      1.0000 0.13900  0.60800  0.30100  Biso   1.000  Pr
  Pr4      1.0000 0.69900  0.86100  0.39200  Biso   1.000  Pr
  Pr5      1.0000 0.30100  0.13900  0.60800  Biso   1.000  Pr
  Pr6      1.0000 0.86100  0.39200  0.69900  Biso   1.000  Pr
  Pr7      1.0000 0.39200  0.69900  0.86100  Biso   1.000  Pr
