data_image0
_cell_length_a       5.23594
_cell_length_b       5.26534
_cell_length_c       7.42119
_cell_angle_alpha    90
_cell_angle_beta     90
_cell_angle_gamma    90

_symmetry_space_group_name_H-M    "P 1"
_symmetry_int_tables_number       1

loop_
  _symmetry_equiv_pos_as_xyz
  'x, y, z'

loop_
  _atom_site_label
  _atom_site_occupancy
  _atom_site_fract_x
  _atom_site_fract_y
  _atom_site_fract_z
  _atom_site_thermal_displace_type
  _atom_site_B_iso_or_equiv
  _atom_site_type_symbol
  Ca1      1.0000 0.99200  0.04000  0.25000  Biso   1.000  Ca
  Ca2      1.0000 0.49200  0.46000  0.75000  Biso   1.000  Ca
  Ca3      1.0000 0.50800  0.54000  0.25000  Biso   1.000  Ca
  Ca4      1.0000 0.00817  0.96000  0.75000  Biso   1.000  Ca
  Ge1      1.0000 0.00000  0.50000  0.00000  Biso   1.000  Ge
  Ge2      1.0000 0.50000  0.00000  0.00000  Biso   1.000  Ge
  Ge3      1.0000 0.50000  0.00000  0.50000  Biso   1.000  Ge
  Ge4      1.0000 0.00000  0.50000  0.50000  Biso   1.000  Ge
  O1       1.0000 0.07420  0.48700  0.25000  Biso   1.000  O 
  O2       1.0000 0.57400  0.01350  0.75000  Biso   1.000  O 
  O3       1.0000 0.42600  0.98700  0.25000  Biso   1.000  O 
  O4       1.0000 0.92600  0.51300  0.75000  Biso   1.000  O 
  O5       1.0000 0.70900  0.29000  0.03830  Biso   1.000  O 
  O6       1.0000 0.20900  0.21000  0.96200  Biso   1.000  O 
  O7       1.0000 0.79100  0.79000  0.46200  Biso   1.000  O 
  O8       1.0000 0.29100  0.71000  0.53800  Biso   1.000  O 
  O9       1.0000 0.29100  0.71000  0.96200  Biso   1.000  O 
  O10      1.0000 0.79100  0.79000  0.03830  Biso   1.000  O 
  O11      1.0000 0.20900  0.21000  0.53800  Biso   1.000  O 
  O12      1.0000 0.70900  0.29000  0.46200  Biso   1.000  O 
