data_image0
_cell_length_a       3.83854
_cell_length_b       4.75204
_cell_length_c       6.05832
_cell_angle_alpha    90
_cell_angle_beta     90
_cell_angle_gamma    66.1794

_symmetry_space_group_name_H-M    "P 1"
_symmetry_int_tables_number       1

loop_
  _symmetry_equiv_pos_as_xyz
  'x, y, z'

loop_
  _atom_site_label
  _atom_site_occupancy
  _atom_site_fract_x
  _atom_site_fract_y
  _atom_site_fract_z
  _atom_site_thermal_displace_type
  _atom_site_B_iso_or_equiv
  _atom_site_type_symbol
  Cr1      1.0000 0.47700  0.20200  0.25000  Biso   1.000  Cr
  Cr2      1.0000 0.67900  0.79800  0.75000  Biso   1.000  Cr
  O1       1.0000 0.49200  0.00000  0.00001  Biso   1.000  O 
  O2       1.0000 0.02840  0.54900  0.25000  Biso   1.000  O 
  O3       1.0000 0.90600  0.30500  0.25000  Biso   1.000  O 
  O4       1.0000 0.49200  0.00000  0.50000  Biso   1.000  O 
  O5       1.0000 0.57800  0.45100  0.75000  Biso   1.000  O 
  O6       1.0000 0.21100  0.69500  0.75000  Biso   1.000  O 
