data_image0
_cell_length_a       5.36552
_cell_length_b       5.36552
_cell_length_c       6.36545
_cell_angle_alpha    125.784
_cell_angle_beta     125.784
_cell_angle_gamma    61.6483

_symmetry_space_group_name_H-M    "P 1"
_symmetry_int_tables_number       1

loop_
  _symmetry_equiv_pos_as_xyz
  'x, y, z'

loop_
  _atom_site_label
  _atom_site_occupancy
  _atom_site_fract_x
  _atom_site_fract_y
  _atom_site_fract_z
  _atom_site_thermal_displace_type
  _atom_site_B_iso_or_equiv
  _atom_site_type_symbol
  F1       1.0000 0.70100  0.70100  0.17200  Biso   1.000  F 
  F2       1.0000 0.23800  0.23800  0.20100  Biso   1.000  F 
  F3       1.0000 0.78400  0.28000  0.32500  Biso   1.000  F 
  F4       1.0000 0.28000  0.78400  0.32500  Biso   1.000  F 
  F5       1.0000 0.72000  0.21600  0.67500  Biso   1.000  F 
  F6       1.0000 0.21600  0.72000  0.67500  Biso   1.000  F 
  F7       1.0000 0.76200  0.76200  0.79900  Biso   1.000  F 
  F8       1.0000 0.29900  0.29900  0.82800  Biso   1.000  F 
  W1       1.0000 0.78200  0.21800  0.00000  Biso   1.000  W 
  W2       1.0000 0.21800  0.78200  0.00000  Biso   1.000  W 
