data_image0
_cell_length_a       8.44881
_cell_length_b       5.50065
_cell_length_c       6.84181
_cell_angle_alpha    90
_cell_angle_beta     90
_cell_angle_gamma    90

_symmetry_space_group_name_H-M    "P 1"
_symmetry_int_tables_number       1

loop_
  _symmetry_equiv_pos_as_xyz
  'x, y, z'

loop_
  _atom_site_label
  _atom_site_occupancy
  _atom_site_fract_x
  _atom_site_fract_y
  _atom_site_fract_z
  _atom_site_thermal_displace_type
  _atom_site_B_iso_or_equiv
  _atom_site_type_symbol
  Cl1      1.0000 0.41100  0.25000  0.19600  Biso   1.000  Cl
  Cl2      1.0000 0.08880  0.75000  0.69600  Biso   1.000  Cl
  Cl3      1.0000 0.91100  0.25000  0.30400  Biso   1.000  Cl
  Cl4      1.0000 0.58900  0.75000  0.80400  Biso   1.000  Cl
  H1       1.0000 0.21500  0.75000  0.32100  Biso   1.000  H 
  H2       1.0000 0.28500  0.25000  0.82100  Biso   1.000  H 
  H3       1.0000 0.71500  0.75000  0.17900  Biso   1.000  H 
  H4       1.0000 0.78500  0.25000  0.67900  Biso   1.000  H 
  H5       1.0000 0.11200  0.90100  0.14900  Biso   1.000  H 
  H6       1.0000 0.38800  0.09890  0.64900  Biso   1.000  H 
  H7       1.0000 0.61200  0.59900  0.35100  Biso   1.000  H 
  H8       1.0000 0.88800  0.40100  0.85100  Biso   1.000  H 
  H9       1.0000 0.88800  0.09890  0.85100  Biso   1.000  H 
  H10      1.0000 0.61200  0.90100  0.35100  Biso   1.000  H 
  H11      1.0000 0.38800  0.40100  0.64900  Biso   1.000  H 
  H12      1.0000 0.11200  0.59900  0.14900  Biso   1.000  H 
  H13      1.0000 0.27900  0.75000  0.08910  Biso   1.000  H 
  H14      1.0000 0.22100  0.25000  0.58900  Biso   1.000  H 
  H15      1.0000 0.77900  0.75000  0.41100  Biso   1.000  H 
  H16      1.0000 0.72100  0.25000  0.91100  Biso   1.000  H 
  N1       1.0000 0.18100  0.75000  0.17700  Biso   1.000  N 
  N2       1.0000 0.31900  0.25000  0.67700  Biso   1.000  N 
  N3       1.0000 0.68100  0.75000  0.32300  Biso   1.000  N 
  N4       1.0000 0.81900  0.25000  0.82300  Biso   1.000  N 
  O1       1.0000 0.54500  0.25000  0.06390  Biso   1.000  O 
  O2       1.0000 0.95500  0.75000  0.56400  Biso   1.000  O 
  O3       1.0000 0.04450  0.25000  0.43600  Biso   1.000  O 
  O4       1.0000 0.45500  0.75000  0.93600  Biso   1.000  O 
  O5       1.0000 0.41600  0.03580  0.32000  Biso   1.000  O 
  O6       1.0000 0.08430  0.96400  0.82000  Biso   1.000  O 
  O7       1.0000 0.91600  0.46400  0.18000  Biso   1.000  O 
  O8       1.0000 0.58400  0.53600  0.68000  Biso   1.000  O 
  O9       1.0000 0.58400  0.96400  0.68000  Biso   1.000  O 
  O10      1.0000 0.91600  0.03580  0.18000  Biso   1.000  O 
  O11      1.0000 0.08430  0.53600  0.82000  Biso   1.000  O 
  O12      1.0000 0.41600  0.46400  0.32000  Biso   1.000  O 
  O13      1.0000 0.26400  0.25000  0.08560  Biso   1.000  O 
  O14      1.0000 0.23600  0.75000  0.58600  Biso   1.000  O 
  O15      1.0000 0.76400  0.25000  0.41400  Biso   1.000  O 
  O16      1.0000 0.73600  0.75000  0.91400  Biso   1.000  O 
