data_image0
_cell_length_a       4.72102
_cell_length_b       4.72093
_cell_length_c       4.31943
_cell_angle_alpha    90.0151
_cell_angle_beta     89.9924
_cell_angle_gamma    119.999

_symmetry_space_group_name_H-M    "P 1"
_symmetry_int_tables_number       1

loop_
  _symmetry_equiv_pos_as_xyz
  'x, y, z'

loop_
  _atom_site_label
  _atom_site_occupancy
  _atom_site_fract_x
  _atom_site_fract_y
  _atom_site_fract_z
  _atom_site_thermal_displace_type
  _atom_site_B_iso_or_equiv
  _atom_site_type_symbol
  Fe1      1.0000 0.33100  1.00000  0.25100  Biso   1.000  Fe
  Fe2      1.0000 0.66900  0.66900  0.25100  Biso   1.000  Fe
  Fe3      1.0000 0.00000  0.33100  0.25100  Biso   1.000  Fe
  Fe4      1.0000 0.00000  0.66900  0.74900  Biso   1.000  Fe
  Fe5      1.0000 0.66900  0.00001  0.74900  Biso   1.000  Fe
  Fe6      1.0000 0.33100  0.33100  0.74900  Biso   1.000  Fe
  N1       1.0000 0.00000  0.00000  0.00000  Biso   1.000  N 
  N2       1.0000 0.66700  0.33300  0.50000  Biso   1.000  N 
  N3       1.0000 0.33300  0.66700  0.50000  Biso   1.000  N 
