data_image0
_cell_length_a       14.0158
_cell_length_b       14.0158
_cell_length_c       14.0158
_cell_angle_alpha    125.506
_cell_angle_beta     125.506
_cell_angle_gamma    80.7016

_symmetry_space_group_name_H-M    "P 1"
_symmetry_int_tables_number       1

loop_
  _symmetry_equiv_pos_as_xyz
  'x, y, z'

loop_
  _atom_site_label
  _atom_site_occupancy
  _atom_site_fract_x
  _atom_site_fract_y
  _atom_site_fract_z
  _atom_site_thermal_displace_type
  _atom_site_B_iso_or_equiv
  _atom_site_type_symbol
  Be1      1.0000 0.56200  0.60400  0.78800  Biso   1.000  Be
  Be2      1.0000 0.31600  0.77400  0.71200  Biso   1.000  Be
  Be3      1.0000 0.93800  0.72600  0.04200  Biso   1.000  Be
  Be4      1.0000 0.18400  0.89600  0.45800  Biso   1.000  Be
  Be5      1.0000 0.89600  0.93800  0.71200  Biso   1.000  Be
  Be6      1.0000 0.72600  0.18400  0.78800  Biso   1.000  Be
  Be7      1.0000 0.77400  0.56200  0.45800  Biso   1.000  Be
  Be8      1.0000 0.60400  0.31600  0.04200  Biso   1.000  Be
  Be9      1.0000 0.43800  0.39600  0.21200  Biso   1.000  Be
  Be10     1.0000 0.68400  0.22600  0.28800  Biso   1.000  Be
  Be11     1.0000 0.06200  0.27400  0.95800  Biso   1.000  Be
  Be12     1.0000 0.81600  0.10400  0.54200  Biso   1.000  Be
  Be13     1.0000 0.10400  0.06200  0.28800  Biso   1.000  Be
  Be14     1.0000 0.27400  0.81600  0.21200  Biso   1.000  Be
  Be15     1.0000 0.22600  0.43800  0.54200  Biso   1.000  Be
  Be16     1.0000 0.39600  0.68400  0.95800  Biso   1.000  Be
  I1       1.0000 0.59100  0.66100  0.00448  Biso   1.000  I 
  I2       1.0000 0.15700  0.58700  0.49600  Biso   1.000  I 
  I3       1.0000 0.90900  0.91300  0.06990  Biso   1.000  I 
  I4       1.0000 0.34300  0.83900  0.43000  Biso   1.000  I 
  I5       1.0000 0.83900  0.90900  0.49600  Biso   1.000  I 
  I6       1.0000 0.91300  0.34300  0.00448  Biso   1.000  I 
  I7       1.0000 0.58700  0.59100  0.43000  Biso   1.000  I 
  I8       1.0000 0.66100  0.15700  0.06990  Biso   1.000  I 
  I9       1.0000 0.40900  0.33900  0.99600  Biso   1.000  I 
  I10      1.0000 0.84300  0.41300  0.50400  Biso   1.000  I 
  I11      1.0000 0.09130  0.08690  0.93000  Biso   1.000  I 
  I12      1.0000 0.65700  0.16100  0.57000  Biso   1.000  I 
  I13      1.0000 0.16100  0.09130  0.50400  Biso   1.000  I 
  I14      1.0000 0.08690  0.65700  0.99600  Biso   1.000  I 
  I15      1.0000 0.41300  0.40900  0.57000  Biso   1.000  I 
  I16      1.0000 0.33900  0.84300  0.93000  Biso   1.000  I 
  I17      1.0000 0.75000  0.56400  0.81400  Biso   1.000  I 
  I18      1.0000 0.25000  0.93600  0.68600  Biso   1.000  I 
  I19      1.0000 0.93600  0.75000  0.68600  Biso   1.000  I 
  I20      1.0000 0.56400  0.25000  0.81400  Biso   1.000  I 
  I21      1.0000 0.25000  0.43600  0.18600  Biso   1.000  I 
  I22      1.0000 0.75000  0.06440  0.31400  Biso   1.000  I 
  I23      1.0000 0.06440  0.25000  0.31400  Biso   1.000  I 
  I24      1.0000 0.43600  0.75000  0.18600  Biso   1.000  I 
  I25      1.0000 0.50800  0.75800  0.75000  Biso   1.000  I 
  I26      1.0000 0.99200  0.74200  0.25000  Biso   1.000  I 
  I27      1.0000 0.74200  0.99200  0.75000  Biso   1.000  I 
  I28      1.0000 0.75800  0.50800  0.25000  Biso   1.000  I 
  I29      1.0000 0.49200  0.24200  0.25000  Biso   1.000  I 
  I30      1.0000 0.00831  0.25800  0.75000  Biso   1.000  I 
  I31      1.0000 0.25800  0.00831  0.25000  Biso   1.000  I 
  I32      1.0000 0.24200  0.49200  0.75000  Biso   1.000  I 
