data_image0
_cell_length_a       4.76939
_cell_length_b       4.7693
_cell_length_c       4.39611
_cell_angle_alpha    90.0034
_cell_angle_beta     89.9983
_cell_angle_gamma    119.999

_symmetry_space_group_name_H-M    "P 1"
_symmetry_int_tables_number       1

loop_
  _symmetry_equiv_pos_as_xyz
  'x, y, z'

loop_
  _atom_site_label
  _atom_site_occupancy
  _atom_site_fract_x
  _atom_site_fract_y
  _atom_site_fract_z
  _atom_site_thermal_displace_type
  _atom_site_B_iso_or_equiv
  _atom_site_type_symbol
  Cr1      1.0000 0.67400  0.67400  0.25300  Biso   1.000  Cr
  Cr2      1.0000 0.32600  0.00000  0.25300  Biso   1.000  Cr
  Cr3      1.0000 0.00000  0.32600  0.25300  Biso   1.000  Cr
  Cr4      1.0000 0.00000  0.67400  0.74700  Biso   1.000  Cr
  Cr5      1.0000 0.32600  0.32600  0.74700  Biso   1.000  Cr
  Cr6      1.0000 0.67400  0.00002  0.74700  Biso   1.000  Cr
  N1       1.0000 0.00000  0.00000  0.00000  Biso   1.000  N 
  N2       1.0000 0.66700  0.33300  0.50000  Biso   1.000  N 
  N3       1.0000 0.33300  0.66700  0.50000  Biso   1.000  N 
