data_image0
_cell_length_a       5.50926
_cell_length_b       5.59453
_cell_length_c       7.96798
_cell_angle_alpha    90
_cell_angle_beta     90
_cell_angle_gamma    90

_symmetry_space_group_name_H-M    "P 1"
_symmetry_int_tables_number       1

loop_
  _symmetry_equiv_pos_as_xyz
  'x, y, z'

loop_
  _atom_site_label
  _atom_site_occupancy
  _atom_site_fract_x
  _atom_site_fract_y
  _atom_site_fract_z
  _atom_site_thermal_displace_type
  _atom_site_B_iso_or_equiv
  _atom_site_type_symbol
  Pd1      1.0000 0.00000  0.00000  0.00000  Biso   1.000  Pd
  Pd2      1.0000 0.50000  0.50000  0.00000  Biso   1.000  Pd
  Pd3      1.0000 0.50000  0.00000  0.50000  Biso   1.000  Pd
  Pd4      1.0000 0.00000  0.50000  0.50000  Biso   1.000  Pd
  S1       1.0000 0.60500  0.11000  0.07860  Biso   1.000  S 
  S2       1.0000 0.89500  0.61000  0.07860  Biso   1.000  S 
  S3       1.0000 0.10500  0.11000  0.42100  Biso   1.000  S 
  S4       1.0000 0.39500  0.61000  0.42100  Biso   1.000  S 
  S5       1.0000 0.60500  0.39000  0.57900  Biso   1.000  S 
  S6       1.0000 0.89500  0.89000  0.57900  Biso   1.000  S 
  S7       1.0000 0.10500  0.39000  0.92100  Biso   1.000  S 
  S8       1.0000 0.39500  0.89000  0.92100  Biso   1.000  S 
