data_image0
_cell_length_a       5.42751
_cell_length_b       5.42751
_cell_length_c       6.27088
_cell_angle_alpha    115.643
_cell_angle_beta     115.643
_cell_angle_gamma    90

_symmetry_space_group_name_H-M    "P 1"
_symmetry_int_tables_number       1

loop_
  _symmetry_equiv_pos_as_xyz
  'x, y, z'

loop_
  _atom_site_label
  _atom_site_occupancy
  _atom_site_fract_x
  _atom_site_fract_y
  _atom_site_fract_z
  _atom_site_thermal_displace_type
  _atom_site_B_iso_or_equiv
  _atom_site_type_symbol
  B1       1.0000 0.38200  0.11800  0.00000  Biso   1.000  B 
  B2       1.0000 0.88200  0.38200  0.00000  Biso   1.000  B 
  B3       1.0000 0.11800  0.61800  0.00000  Biso   1.000  B 
  B4       1.0000 0.61800  0.88200  0.00000  Biso   1.000  B 
  B5       1.0000 0.25000  0.25000  0.50000  Biso   1.000  B 
  B6       1.0000 0.75000  0.75000  0.50000  Biso   1.000  B 
  Cr1      1.0000 0.00000  0.00000  0.00000  Biso   1.000  Cr
  Cr2      1.0000 0.50000  0.50000  0.00000  Biso   1.000  Cr
  Cr3      1.0000 0.81800  0.31800  0.29300  Biso   1.000  Cr
  Cr4      1.0000 0.31800  0.47500  0.29300  Biso   1.000  Cr
  Cr5      1.0000 0.97500  0.81800  0.29300  Biso   1.000  Cr
  Cr6      1.0000 0.47500  0.97500  0.29300  Biso   1.000  Cr
  Cr7      1.0000 0.52500  0.02520  0.70700  Biso   1.000  Cr
  Cr8      1.0000 0.02520  0.18200  0.70700  Biso   1.000  Cr
  Cr9      1.0000 0.68200  0.52500  0.70700  Biso   1.000  Cr
  Cr10     1.0000 0.18200  0.68200  0.70700  Biso   1.000  Cr
