data_image0
_cell_length_a       4.90517
_cell_length_b       10.5834
_cell_length_c       6.26213
_cell_angle_alpha    90
_cell_angle_beta     90
_cell_angle_gamma    90

_symmetry_space_group_name_H-M    "P 1"
_symmetry_int_tables_number       1

loop_
  _symmetry_equiv_pos_as_xyz
  'x, y, z'

loop_
  _atom_site_label
  _atom_site_occupancy
  _atom_site_fract_x
  _atom_site_fract_y
  _atom_site_fract_z
  _atom_site_thermal_displace_type
  _atom_site_B_iso_or_equiv
  _atom_site_type_symbol
  Mn1      1.0000 0.00000  0.00000  0.00000  Biso   1.000  Mn
  Mn2      1.0000 0.50000  0.50000  0.00000  Biso   1.000  Mn
  Mn3      1.0000 0.98800  0.28000  0.25000  Biso   1.000  Mn
  Mn4      1.0000 0.51200  0.78000  0.25000  Biso   1.000  Mn
  Mn5      1.0000 0.00000  0.00000  0.50000  Biso   1.000  Mn
  Mn6      1.0000 0.50000  0.50000  0.50000  Biso   1.000  Mn
  Mn7      1.0000 0.48800  0.22000  0.75000  Biso   1.000  Mn
  Mn8      1.0000 0.01210  0.72000  0.75000  Biso   1.000  Mn
  O1       1.0000 0.28600  0.16500  0.03990  Biso   1.000  O 
  O2       1.0000 0.21400  0.66500  0.03990  Biso   1.000  O 
  O3       1.0000 0.76000  0.09380  0.25000  Biso   1.000  O 
  O4       1.0000 0.21100  0.45200  0.25000  Biso   1.000  O 
  O5       1.0000 0.74000  0.59400  0.25000  Biso   1.000  O 
  O6       1.0000 0.28900  0.95200  0.25000  Biso   1.000  O 
  O7       1.0000 0.28600  0.16500  0.46000  Biso   1.000  O 
  O8       1.0000 0.21400  0.66500  0.46000  Biso   1.000  O 
  O9       1.0000 0.78600  0.33500  0.54000  Biso   1.000  O 
  O10      1.0000 0.71400  0.83500  0.54000  Biso   1.000  O 
  O11      1.0000 0.71100  0.04770  0.75000  Biso   1.000  O 
  O12      1.0000 0.26000  0.40600  0.75000  Biso   1.000  O 
  O13      1.0000 0.78900  0.54800  0.75000  Biso   1.000  O 
  O14      1.0000 0.24000  0.90600  0.75000  Biso   1.000  O 
  O15      1.0000 0.78600  0.33500  0.96000  Biso   1.000  O 
  O16      1.0000 0.71400  0.83500  0.96000  Biso   1.000  O 
  Si1      1.0000 0.42800  0.09650  0.25000  Biso   1.000  Si
  Si2      1.0000 0.07230  0.59700  0.25000  Biso   1.000  Si
  Si3      1.0000 0.92800  0.40300  0.75000  Biso   1.000  Si
  Si4      1.0000 0.57200  0.90300  0.75000  Biso   1.000  Si
