data_image0
_cell_length_a       6.64936
_cell_length_b       6.64936
_cell_length_c       7.09363
_cell_angle_alpha    117.949
_cell_angle_beta     62.051
_cell_angle_gamma    120

_symmetry_space_group_name_H-M    "P 1"
_symmetry_int_tables_number       1

loop_
  _symmetry_equiv_pos_as_xyz
  'x, y, z'

loop_
  _atom_site_label
  _atom_site_occupancy
  _atom_site_fract_x
  _atom_site_fract_y
  _atom_site_fract_z
  _atom_site_thermal_displace_type
  _atom_site_B_iso_or_equiv
  _atom_site_type_symbol
  In1      1.0000 0.64600  0.35400  0.06250  Biso   1.000  In
  In2      1.0000 0.85400  0.14600  0.43700  Biso   1.000  In
  In3      1.0000 0.14600  0.85400  0.56300  Biso   1.000  In
  In4      1.0000 0.35400  0.64600  0.93700  Biso   1.000  In
  S1       1.0000 0.25000  0.04880  0.25000  Biso   1.000  S 
  S2       1.0000 0.95100  0.45100  0.25000  Biso   1.000  S 
  S3       1.0000 0.54900  0.75000  0.25000  Biso   1.000  S 
  S4       1.0000 0.45100  0.25000  0.75000  Biso   1.000  S 
  S5       1.0000 0.04880  0.54900  0.75000  Biso   1.000  S 
  S6       1.0000 0.75000  0.95100  0.75000  Biso   1.000  S 
