data_image0
_cell_length_a       4.95618
_cell_length_b       4.95617
_cell_length_c       24.2673
_cell_angle_alpha    90.0012
_cell_angle_beta     89.9989
_cell_angle_gamma    120.004

_symmetry_space_group_name_H-M    "P 1"
_symmetry_int_tables_number       1

loop_
  _symmetry_equiv_pos_as_xyz
  'x, y, z'

loop_
  _atom_site_label
  _atom_site_occupancy
  _atom_site_fract_x
  _atom_site_fract_y
  _atom_site_fract_z
  _atom_site_thermal_displace_type
  _atom_site_B_iso_or_equiv
  _atom_site_type_symbol
  Ce1      1.0000 0.33300  0.66700  0.17400  Biso   1.000  Ce
  Ce2      1.0000 0.66700  0.33300  0.67400  Biso   1.000  Ce
  Ce3      1.0000 0.66700  0.33300  0.82600  Biso   1.000  Ce
  Ce4      1.0000 0.33300  0.66700  0.32600  Biso   1.000  Ce
  Ce5      1.0000 0.33300  0.66700  0.02960  Biso   1.000  Ce
  Ce6      1.0000 0.66700  0.33300  0.53000  Biso   1.000  Ce
  Ce7      1.0000 0.66700  0.33300  0.97000  Biso   1.000  Ce
  Ce8      1.0000 0.33300  0.66700  0.47000  Biso   1.000  Ce
  Ni1      1.0000 0.83300  0.66600  0.25000  Biso   1.000  Ni
  Ni2      1.0000 0.16700  0.33400  0.75000  Biso   1.000  Ni
  Ni3      1.0000 0.33400  0.16700  0.25000  Biso   1.000  Ni
  Ni4      1.0000 0.83300  0.16700  0.25000  Biso   1.000  Ni
  Ni5      1.0000 0.16700  0.83300  0.75000  Biso   1.000  Ni
  Ni6      1.0000 0.66600  0.83300  0.75000  Biso   1.000  Ni
  Ni7      1.0000 0.83400  0.66700  0.08750  Biso   1.000  Ni
  Ni8      1.0000 0.16600  0.33300  0.58800  Biso   1.000  Ni
  Ni9      1.0000 0.33300  0.16600  0.08750  Biso   1.000  Ni
  Ni10     1.0000 0.83400  0.16600  0.08750  Biso   1.000  Ni
  Ni11     1.0000 0.16600  0.83400  0.58800  Biso   1.000  Ni
  Ni12     1.0000 0.66700  0.83400  0.58800  Biso   1.000  Ni
  Ni13     1.0000 0.16600  0.33300  0.91200  Biso   1.000  Ni
  Ni14     1.0000 0.16600  0.83400  0.91200  Biso   1.000  Ni
  Ni15     1.0000 0.66700  0.83400  0.91200  Biso   1.000  Ni
  Ni16     1.0000 0.33300  0.16600  0.41200  Biso   1.000  Ni
  Ni17     1.0000 0.83400  0.16600  0.41200  Biso   1.000  Ni
  Ni18     1.0000 0.83400  0.66700  0.41200  Biso   1.000  Ni
  Ni19     1.0000 0.00000  0.00000  0.00000  Biso   1.000  Ni
  Ni20     1.0000 0.00007  0.00000  0.50000  Biso   1.000  Ni
  Ni21     1.0000 0.00001  0.00004  0.16800  Biso   1.000  Ni
  Ni22     1.0000 0.00005  0.00000  0.66800  Biso   1.000  Ni
  Ni23     1.0000 0.00000  0.00000  0.83200  Biso   1.000  Ni
  Ni24     1.0000 0.00000  0.00004  0.33200  Biso   1.000  Ni
  Ni25     1.0000 0.33300  0.66700  0.83200  Biso   1.000  Ni
  Ni26     1.0000 0.66700  0.33300  0.33200  Biso   1.000  Ni
  Ni27     1.0000 0.66700  0.33300  0.16800  Biso   1.000  Ni
  Ni28     1.0000 0.33300  0.66700  0.66800  Biso   1.000  Ni
