data_image0
_cell_length_a       3.48426
_cell_length_b       3.92086
_cell_length_c       6.83382
_cell_angle_alpha    106.671
_cell_angle_beta     104.769
_cell_angle_gamma    90

_symmetry_space_group_name_H-M    "P 1"
_symmetry_int_tables_number       1

loop_
  _symmetry_equiv_pos_as_xyz
  'x, y, z'

loop_
  _atom_site_label
  _atom_site_occupancy
  _atom_site_fract_x
  _atom_site_fract_y
  _atom_site_fract_z
  _atom_site_thermal_displace_type
  _atom_site_B_iso_or_equiv
  _atom_site_type_symbol
  Cu1      1.0000 0.00000  0.50000  0.00000  Biso   1.000  Cu
  O1       1.0000 0.00000  0.00000  0.00000  Biso   1.000  O 
  O2       1.0000 0.15500  0.65500  0.31000  Biso   1.000  O 
  O3       1.0000 0.84500  0.34500  0.69000  Biso   1.000  O 
  Sr1      1.0000 0.64700  0.14700  0.29400  Biso   1.000  Sr
  Sr2      1.0000 0.35300  0.85300  0.70600  Biso   1.000  Sr
