data_image0
_cell_length_a       5.35666
_cell_length_b       8.76823
_cell_length_c       8.06758
_cell_angle_alpha    90
_cell_angle_beta     91.2909
_cell_angle_gamma    90

_symmetry_space_group_name_H-M    "P 1"
_symmetry_int_tables_number       1

loop_
  _symmetry_equiv_pos_as_xyz
  'x, y, z'

loop_
  _atom_site_label
  _atom_site_occupancy
  _atom_site_fract_x
  _atom_site_fract_y
  _atom_site_fract_z
  _atom_site_thermal_displace_type
  _atom_site_B_iso_or_equiv
  _atom_site_type_symbol
  Fe1      1.0000 0.10800  0.77000  0.13100  Biso   1.000  Fe
  Fe2      1.0000 0.39200  0.27000  0.36900  Biso   1.000  Fe
  Fe3      1.0000 0.89200  0.23000  0.86900  Biso   1.000  Fe
  Fe4      1.0000 0.60800  0.73000  0.63100  Biso   1.000  Fe
  H1       1.0000 0.29700  0.33500  0.04520  Biso   1.000  H 
  H2       1.0000 0.20300  0.83500  0.45500  Biso   1.000  H 
  H3       1.0000 0.70300  0.66500  0.95500  Biso   1.000  H 
  H4       1.0000 0.79700  0.16500  0.54500  Biso   1.000  H 
  H5       1.0000 0.14000  0.49500  0.27000  Biso   1.000  H 
  H6       1.0000 0.35900  0.99500  0.23000  Biso   1.000  H 
  H7       1.0000 0.85900  0.50500  0.73000  Biso   1.000  H 
  H8       1.0000 0.64000  0.00483  0.77000  Biso   1.000  H 
  H9       1.0000 0.93000  0.41100  0.37500  Biso   1.000  H 
  H10      1.0000 0.57000  0.91100  0.12500  Biso   1.000  H 
  H11      1.0000 0.06950  0.58900  0.62500  Biso   1.000  H 
  H12      1.0000 0.43000  0.08870  0.87500  Biso   1.000  H 
  H13      1.0000 0.57500  0.28100  0.09410  Biso   1.000  H 
  H14      1.0000 0.92500  0.78100  0.40600  Biso   1.000  H 
  H15      1.0000 0.42500  0.71900  0.90600  Biso   1.000  H 
  H16      1.0000 0.07500  0.21900  0.59400  Biso   1.000  H 
  O1       1.0000 0.38500  0.92300  0.13800  Biso   1.000  O 
  O2       1.0000 0.11500  0.42300  0.36200  Biso   1.000  O 
  O3       1.0000 0.61500  0.07680  0.86200  Biso   1.000  O 
  O4       1.0000 0.88500  0.57700  0.63800  Biso   1.000  O 
  O5       1.0000 0.39600  0.26500  0.11800  Biso   1.000  O 
  O6       1.0000 0.10400  0.76500  0.38200  Biso   1.000  O 
  O7       1.0000 0.60400  0.73500  0.88200  Biso   1.000  O 
  O8       1.0000 0.89600  0.23500  0.61800  Biso   1.000  O 
  O9       1.0000 0.11500  0.77100  0.88800  Biso   1.000  O 
  O10      1.0000 0.38500  0.27100  0.61200  Biso   1.000  O 
  O11      1.0000 0.88500  0.22900  0.11200  Biso   1.000  O 
  O12      1.0000 0.61500  0.72900  0.38800  Biso   1.000  O 
  O13      1.0000 0.36100  0.60300  0.15200  Biso   1.000  O 
  O14      1.0000 0.13900  0.10300  0.34800  Biso   1.000  O 
  O15      1.0000 0.63900  0.39700  0.84800  Biso   1.000  O 
  O16      1.0000 0.86100  0.89700  0.65200  Biso   1.000  O 
  O17      1.0000 0.87100  0.94300  0.15300  Biso   1.000  O 
  O18      1.0000 0.62900  0.44300  0.34700  Biso   1.000  O 
  O19      1.0000 0.12900  0.05720  0.84700  Biso   1.000  O 
  O20      1.0000 0.37100  0.55700  0.65300  Biso   1.000  O 
  O21      1.0000 0.83100  0.61700  0.14200  Biso   1.000  O 
  O22      1.0000 0.66900  0.11700  0.35800  Biso   1.000  O 
  O23      1.0000 0.16900  0.38300  0.85800  Biso   1.000  O 
  O24      1.0000 0.33100  0.88300  0.64200  Biso   1.000  O 
  P1       1.0000 0.89400  0.09830  0.24200  Biso   1.000  P 
  P2       1.0000 0.60600  0.59800  0.25800  Biso   1.000  P 
  P3       1.0000 0.10600  0.90200  0.75800  Biso   1.000  P 
  P4       1.0000 0.39400  0.40200  0.74200  Biso   1.000  P 
