data_image0
_cell_length_a       5.0622
_cell_length_b       5.0622
_cell_length_c       5.51387
_cell_angle_alpha    62.6747
_cell_angle_beta     117.325
_cell_angle_gamma    120

_symmetry_space_group_name_H-M    "P 1"
_symmetry_int_tables_number       1

loop_
  _symmetry_equiv_pos_as_xyz
  'x, y, z'

loop_
  _atom_site_label
  _atom_site_occupancy
  _atom_site_fract_x
  _atom_site_fract_y
  _atom_site_fract_z
  _atom_site_thermal_displace_type
  _atom_site_B_iso_or_equiv
  _atom_site_type_symbol
  O1       1.0000 0.05460  0.25000  0.25000  Biso   1.000  O 
  O2       1.0000 0.75000  0.55500  0.25000  Biso   1.000  O 
  O3       1.0000 0.44500  0.94500  0.25000  Biso   1.000  O 
  O4       1.0000 0.55500  0.05460  0.75000  Biso   1.000  O 
  O5       1.0000 0.25000  0.44500  0.75000  Biso   1.000  O 
  O6       1.0000 0.94500  0.75000  0.75000  Biso   1.000  O 
  V1       1.0000 0.35100  0.64900  0.05150  Biso   1.000  V 
  V2       1.0000 0.14900  0.85100  0.44800  Biso   1.000  V 
  V3       1.0000 0.85100  0.14900  0.55200  Biso   1.000  V 
  V4       1.0000 0.64900  0.35100  0.94800  Biso   1.000  V 
