data_image0
_cell_length_a       5.44729
_cell_length_b       5.44729
_cell_length_c       7.03661
_cell_angle_alpha    103.997
_cell_angle_beta     103.997
_cell_angle_gamma    106.101

_symmetry_space_group_name_H-M    "P 1"
_symmetry_int_tables_number       1

loop_
  _symmetry_equiv_pos_as_xyz
  'x, y, z'

loop_
  _atom_site_label
  _atom_site_occupancy
  _atom_site_fract_x
  _atom_site_fract_y
  _atom_site_fract_z
  _atom_site_thermal_displace_type
  _atom_site_B_iso_or_equiv
  _atom_site_type_symbol
  Ca1      1.0000 0.16900  0.83100  0.25000  Biso   1.000  Ca
  Ca2      1.0000 0.83100  0.16900  0.75000  Biso   1.000  Ca
  O1       1.0000 0.75100  0.88100  0.08570  Biso   1.000  O 
  O2       1.0000 0.81800  0.39300  0.11800  Biso   1.000  O 
  O3       1.0000 0.42700  0.57300  0.25000  Biso   1.000  O 
  O4       1.0000 0.60700  0.18200  0.38200  Biso   1.000  O 
  O5       1.0000 0.11900  0.24900  0.41400  Biso   1.000  O 
  O6       1.0000 0.88100  0.75100  0.58600  Biso   1.000  O 
  O7       1.0000 0.39300  0.81800  0.61800  Biso   1.000  O 
  O8       1.0000 0.57300  0.42700  0.75000  Biso   1.000  O 
  O9       1.0000 0.18200  0.60700  0.88200  Biso   1.000  O 
  O10      1.0000 0.24900  0.11900  0.91400  Biso   1.000  O 
  Si1      1.0000 0.81800  0.18200  0.25000  Biso   1.000  Si
  Si2      1.0000 0.18200  0.81800  0.75000  Biso   1.000  Si
  Ti1      1.0000 0.50000  0.50000  0.00000  Biso   1.000  Ti
  Ti2      1.0000 0.50000  0.50000  0.50000  Biso   1.000  Ti
