data_image0
_cell_length_a       4.74372
_cell_length_b       4.74471
_cell_length_c       7.75984
_cell_angle_alpha    90
_cell_angle_beta     90
_cell_angle_gamma    119.993

_symmetry_space_group_name_H-M    "P 1"
_symmetry_int_tables_number       1

loop_
  _symmetry_equiv_pos_as_xyz
  'x, y, z'

loop_
  _atom_site_label
  _atom_site_occupancy
  _atom_site_fract_x
  _atom_site_fract_y
  _atom_site_fract_z
  _atom_site_thermal_displace_type
  _atom_site_B_iso_or_equiv
  _atom_site_type_symbol
  Fe1      1.0000 0.00000  0.00000  0.00000  Biso   1.000  Fe
  Fe2      1.0000 0.17100  0.34200  0.25000  Biso   1.000  Fe
  Fe3      1.0000 0.17100  0.82900  0.25000  Biso   1.000  Fe
  Fe4      1.0000 0.65800  0.82900  0.25000  Biso   1.000  Fe
  Fe5      1.0000 0.00000  0.00000  0.50000  Biso   1.000  Fe
  Fe6      1.0000 0.34200  0.17100  0.75000  Biso   1.000  Fe
  Fe7      1.0000 0.82900  0.17100  0.75000  Biso   1.000  Fe
  Fe8      1.0000 0.82900  0.65800  0.75000  Biso   1.000  Fe
  Ta1      1.0000 0.33300  0.66700  0.93500  Biso   1.000  Ta
  Ta2      1.0000 0.66700  0.33300  0.06540  Biso   1.000  Ta
  Ta3      1.0000 0.66700  0.33300  0.43500  Biso   1.000  Ta
  Ta4      1.0000 0.33300  0.66700  0.56500  Biso   1.000  Ta
