data_image0
_cell_length_a       4.44649
_cell_length_b       4.44649
_cell_length_c       10.1745
_cell_angle_alpha    90
_cell_angle_beta     102.622
_cell_angle_gamma    120

_symmetry_space_group_name_H-M    "P 1"
_symmetry_int_tables_number       1

loop_
  _symmetry_equiv_pos_as_xyz
  'x, y, z'

loop_
  _atom_site_label
  _atom_site_occupancy
  _atom_site_fract_x
  _atom_site_fract_y
  _atom_site_fract_z
  _atom_site_thermal_displace_type
  _atom_site_B_iso_or_equiv
  _atom_site_type_symbol
  Bi1      1.0000 0.38200  0.19100  0.57300  Biso   1.000  Bi
  Bi2      1.0000 0.19800  0.59900  0.79700  Biso   1.000  Bi
  Te1      1.0000 0.98800  0.99400  0.98200  Biso   1.000  Te
  Te2      1.0000 0.78900  0.39500  0.18400  Biso   1.000  Te
  Te3      1.0000 0.59300  0.79600  0.38900  Biso   1.000  Te
