data_image0
_cell_length_a       2.93661
_cell_length_b       2.91683
_cell_length_c       6.82785
_cell_angle_alpha    102.333
_cell_angle_beta     102.418
_cell_angle_gamma    90

_symmetry_space_group_name_H-M    "P 1"
_symmetry_int_tables_number       1

loop_
  _symmetry_equiv_pos_as_xyz
  'x, y, z'

loop_
  _atom_site_label
  _atom_site_occupancy
  _atom_site_fract_x
  _atom_site_fract_y
  _atom_site_fract_z
  _atom_site_thermal_displace_type
  _atom_site_B_iso_or_equiv
  _atom_site_type_symbol
  B1       1.0000 0.06640  0.56600  0.13300  Biso   1.000  B 
  B2       1.0000 0.64000  0.64000  0.28000  Biso   1.000  B 
  B3       1.0000 0.36000  0.36000  0.72000  Biso   1.000  B 
  B4       1.0000 0.93400  0.43400  0.86700  Biso   1.000  B 
  Cr1      1.0000 0.50000  0.00000  0.00000  Biso   1.000  Cr
  Cr2      1.0000 0.18600  0.18600  0.37200  Biso   1.000  Cr
  Cr3      1.0000 0.81400  0.81400  0.62800  Biso   1.000  Cr
