data_image0
_cell_length_a       5.6705
_cell_length_b       5.6705
_cell_length_c       6.80972
_cell_angle_alpha    114.605
_cell_angle_beta     114.605
_cell_angle_gamma    90

_symmetry_space_group_name_H-M    "P 1"
_symmetry_int_tables_number       1

loop_
  _symmetry_equiv_pos_as_xyz
  'x, y, z'

loop_
  _atom_site_label
  _atom_site_occupancy
  _atom_site_fract_x
  _atom_site_fract_y
  _atom_site_fract_z
  _atom_site_thermal_displace_type
  _atom_site_B_iso_or_equiv
  _atom_site_type_symbol
  As1      1.0000 0.38800  0.37500  0.25000  Biso   1.000  As
  As2      1.0000 0.86200  0.87500  0.25000  Biso   1.000  As
  As3      1.0000 0.62500  0.13800  0.75000  Biso   1.000  As
  As4      1.0000 0.12500  0.61200  0.75000  Biso   1.000  As
  Si1      1.0000 0.50000  0.50000  0.00000  Biso   1.000  Si
  Si2      1.0000 0.75000  0.25000  0.50000  Biso   1.000  Si
  Zn1      1.0000 0.00000  0.00000  0.00000  Biso   1.000  Zn
  Zn2      1.0000 0.25000  0.75000  0.50000  Biso   1.000  Zn
