data_image0
_cell_length_a       5.85938
_cell_length_b       7.61071
_cell_length_c       5.00634
_cell_angle_alpha    90
_cell_angle_beta     90
_cell_angle_gamma    90

_symmetry_space_group_name_H-M    "P 1"
_symmetry_int_tables_number       1

loop_
  _symmetry_equiv_pos_as_xyz
  'x, y, z'

loop_
  _atom_site_label
  _atom_site_occupancy
  _atom_site_fract_x
  _atom_site_fract_y
  _atom_site_fract_z
  _atom_site_thermal_displace_type
  _atom_site_B_iso_or_equiv
  _atom_site_type_symbol
  Mg1      1.0000 0.50000  0.00000  0.00000  Biso   1.000  Mg
  Mg2      1.0000 0.50000  0.50000  0.00000  Biso   1.000  Mg
  Mg3      1.0000 0.00000  0.00000  0.50000  Biso   1.000  Mg
  Mg4      1.0000 0.00000  0.50000  0.50000  Biso   1.000  Mg
  O1       1.0000 0.81700  0.57600  0.14300  Biso   1.000  O 
  O2       1.0000 0.81700  0.92400  0.14300  Biso   1.000  O 
  O3       1.0000 0.57000  0.25000  0.17600  Biso   1.000  O 
  O4       1.0000 0.07040  0.25000  0.32400  Biso   1.000  O 
  O5       1.0000 0.31700  0.57600  0.35700  Biso   1.000  O 
  O6       1.0000 0.31700  0.92400  0.35700  Biso   1.000  O 
  O7       1.0000 0.68300  0.07640  0.64300  Biso   1.000  O 
  O8       1.0000 0.68300  0.42400  0.64300  Biso   1.000  O 
  O9       1.0000 0.93000  0.75000  0.67600  Biso   1.000  O 
  O10      1.0000 0.43000  0.75000  0.82400  Biso   1.000  O 
  O11      1.0000 0.18300  0.07640  0.85700  Biso   1.000  O 
  O12      1.0000 0.18300  0.42400  0.85700  Biso   1.000  O 
  Se1      1.0000 0.98400  0.75000  0.01750  Biso   1.000  Se
  Se2      1.0000 0.48400  0.75000  0.48200  Biso   1.000  Se
  Se3      1.0000 0.51600  0.25000  0.51800  Biso   1.000  Se
  Se4      1.0000 0.01610  0.25000  0.98200  Biso   1.000  Se
