data_image0
_cell_length_a       6.94722
_cell_length_b       8.02484
_cell_length_c       8.02484
_cell_angle_alpha    62.5797
_cell_angle_beta     90.9275
_cell_angle_gamma    90.9275

_symmetry_space_group_name_H-M    "P 1"
_symmetry_int_tables_number       1

loop_
  _symmetry_equiv_pos_as_xyz
  'x, y, z'

loop_
  _atom_site_label
  _atom_site_occupancy
  _atom_site_fract_x
  _atom_site_fract_y
  _atom_site_fract_z
  _atom_site_thermal_displace_type
  _atom_site_B_iso_or_equiv
  _atom_site_type_symbol
  I1       1.0000 0.10600  0.73700  0.01330  Biso   1.000  I 
  I2       1.0000 0.39400  0.98700  0.26300  Biso   1.000  I 
  I3       1.0000 0.57100  0.49600  0.28100  Biso   1.000  I 
  I4       1.0000 0.07080  0.28100  0.49600  Biso   1.000  I 
  I5       1.0000 0.92900  0.71900  0.50400  Biso   1.000  I 
  I6       1.0000 0.42900  0.50400  0.71900  Biso   1.000  I 
  I7       1.0000 0.60600  0.01330  0.73700  Biso   1.000  I 
  I8       1.0000 0.89400  0.26300  0.98700  Biso   1.000  I 
  Ti1      1.0000 0.25000  0.65900  0.34100  Biso   1.000  Ti
  Ti2      1.0000 0.75000  0.34100  0.65900  Biso   1.000  Ti
