data_image0
_cell_length_a       4.5794
_cell_length_b       4.5794
_cell_length_c       6.44524
_cell_angle_alpha    110.809
_cell_angle_beta     110.809
_cell_angle_gamma    90

_symmetry_space_group_name_H-M    "P 1"
_symmetry_int_tables_number       1

loop_
  _symmetry_equiv_pos_as_xyz
  'x, y, z'

loop_
  _atom_site_label
  _atom_site_occupancy
  _atom_site_fract_x
  _atom_site_fract_y
  _atom_site_fract_z
  _atom_site_thermal_displace_type
  _atom_site_B_iso_or_equiv
  _atom_site_type_symbol
  Cl1      1.0000 0.66200  0.66200  0.32300  Biso   1.000  Cl
  Cl2      1.0000 0.33800  0.33800  0.67700  Biso   1.000  Cl
  Hg1      1.0000 0.11700  0.11700  0.23400  Biso   1.000  Hg
  Hg2      1.0000 0.88300  0.88300  0.76600  Biso   1.000  Hg
