data_image0
_cell_length_a       11.8404
_cell_length_b       5.9016
_cell_length_c       9.55679
_cell_angle_alpha    90
_cell_angle_beta     90
_cell_angle_gamma    90

_symmetry_space_group_name_H-M    "P 1"
_symmetry_int_tables_number       1

loop_
  _symmetry_equiv_pos_as_xyz
  'x, y, z'

loop_
  _atom_site_label
  _atom_site_occupancy
  _atom_site_fract_x
  _atom_site_fract_y
  _atom_site_fract_z
  _atom_site_thermal_displace_type
  _atom_site_B_iso_or_equiv
  _atom_site_type_symbol
  Cl1      1.0000 0.36600  0.25000  0.07820  Biso   1.000  Cl
  Cl2      1.0000 0.18900  0.75000  0.19100  Biso   1.000  Cl
  Cl3      1.0000 0.68900  0.75000  0.30900  Biso   1.000  Cl
  Cl4      1.0000 0.86600  0.25000  0.42200  Biso   1.000  Cl
  Cl5      1.0000 0.13400  0.75000  0.57800  Biso   1.000  Cl
  Cl6      1.0000 0.31100  0.25000  0.69100  Biso   1.000  Cl
  Cl7      1.0000 0.81100  0.25000  0.80900  Biso   1.000  Cl
  Cl8      1.0000 0.63400  0.75000  0.92200  Biso   1.000  Cl
  O1       1.0000 0.92000  0.50500  0.11500  Biso   1.000  O 
  O2       1.0000 0.92000  0.99500  0.11500  Biso   1.000  O 
  O3       1.0000 0.42000  0.50500  0.38500  Biso   1.000  O 
  O4       1.0000 0.42000  0.99500  0.38500  Biso   1.000  O 
  O5       1.0000 0.58000  0.00476  0.61500  Biso   1.000  O 
  O6       1.0000 0.58000  0.49500  0.61500  Biso   1.000  O 
  O7       1.0000 0.07980  0.00476  0.88500  Biso   1.000  O 
  O8       1.0000 0.07980  0.49500  0.88500  Biso   1.000  O 
  Pb1      1.0000 0.08250  0.25000  0.08130  Biso   1.000  Pb
  Pb2      1.0000 0.78000  0.25000  0.13500  Biso   1.000  Pb
  Pb3      1.0000 0.43900  0.75000  0.20000  Biso   1.000  Pb
  Pb4      1.0000 0.93900  0.75000  0.30000  Biso   1.000  Pb
  Pb5      1.0000 0.28000  0.25000  0.36500  Biso   1.000  Pb
  Pb6      1.0000 0.58300  0.25000  0.41900  Biso   1.000  Pb
  Pb7      1.0000 0.41700  0.75000  0.58100  Biso   1.000  Pb
  Pb8      1.0000 0.72000  0.75000  0.63500  Biso   1.000  Pb
  Pb9      1.0000 0.06110  0.25000  0.70000  Biso   1.000  Pb
  Pb10     1.0000 0.56100  0.25000  0.80000  Biso   1.000  Pb
  Pb11     1.0000 0.22000  0.75000  0.86500  Biso   1.000  Pb
  Pb12     1.0000 0.91700  0.75000  0.91900  Biso   1.000  Pb
