data_image0
_cell_length_a       4.093
_cell_length_b       4.09301
_cell_length_c       10.296
_cell_angle_alpha    101.465
_cell_angle_beta     78.5352
_cell_angle_gamma    120

_symmetry_space_group_name_H-M    "P 1"
_symmetry_int_tables_number       1

loop_
  _symmetry_equiv_pos_as_xyz
  'x, y, z'

loop_
  _atom_site_label
  _atom_site_occupancy
  _atom_site_fract_x
  _atom_site_fract_y
  _atom_site_fract_z
  _atom_site_thermal_displace_type
  _atom_site_B_iso_or_equiv
  _atom_site_type_symbol
  As1      1.0000 0.60600  0.39400  0.18300  Biso   1.000  As
  As2      1.0000 0.39600  0.60400  0.81300  Biso   1.000  As
  Te1      1.0000 0.21900  0.78100  0.34300  Biso   1.000  Te
  Te2      1.0000 0.78200  0.21800  0.65400  Biso   1.000  Te
  Te3      1.0000 0.00070  0.99900  0.99800  Biso   1.000  Te
