data_image0
_cell_length_a       4.45586
_cell_length_b       4.45586
_cell_length_c       14.0789
_cell_angle_alpha    90
_cell_angle_beta     90
_cell_angle_gamma    115.94

_symmetry_space_group_name_H-M    "P 1"
_symmetry_int_tables_number       1

loop_
  _symmetry_equiv_pos_as_xyz
  'x, y, z'

loop_
  _atom_site_label
  _atom_site_occupancy
  _atom_site_fract_x
  _atom_site_fract_y
  _atom_site_fract_z
  _atom_site_thermal_displace_type
  _atom_site_B_iso_or_equiv
  _atom_site_type_symbol
  Hg1      1.0000 0.34300  0.65700  0.49900  Biso   1.000  Hg
  Hg2      1.0000 0.65700  0.34300  0.99900  Biso   1.000  Hg
  I1       1.0000 0.91000  0.09050  0.13200  Biso   1.000  I 
  I2       1.0000 0.59500  0.40500  0.36600  Biso   1.000  I 
  I3       1.0000 0.09050  0.91000  0.63200  Biso   1.000  I 
  I4       1.0000 0.40500  0.59500  0.86600  Biso   1.000  I 
