data_image0
_cell_length_a       5.77606
_cell_length_b       10.2286
_cell_length_c       7.53441
_cell_angle_alpha    90
_cell_angle_beta     90
_cell_angle_gamma    90

_symmetry_space_group_name_H-M    "P 1"
_symmetry_int_tables_number       1

loop_
  _symmetry_equiv_pos_as_xyz
  'x, y, z'

loop_
  _atom_site_label
  _atom_site_occupancy
  _atom_site_fract_x
  _atom_site_fract_y
  _atom_site_fract_z
  _atom_site_thermal_displace_type
  _atom_site_B_iso_or_equiv
  _atom_site_type_symbol
  Ba1      1.0000 0.75000  0.30700  0.01310  Biso   1.000  Ba
  Ba2      1.0000 0.25000  0.08620  0.15900  Biso   1.000  Ba
  Ba3      1.0000 0.75000  0.58600  0.34100  Biso   1.000  Ba
  Ba4      1.0000 0.25000  0.80700  0.48700  Biso   1.000  Ba
  Ba5      1.0000 0.75000  0.19300  0.51300  Biso   1.000  Ba
  Ba6      1.0000 0.25000  0.41400  0.65900  Biso   1.000  Ba
  Ba7      1.0000 0.75000  0.91400  0.84100  Biso   1.000  Ba
  Ba8      1.0000 0.25000  0.69300  0.98700  Biso   1.000  Ba
  O1       1.0000 0.25000  0.41100  0.01240  Biso   1.000  O 
  O2       1.0000 0.51600  0.85300  0.18700  Biso   1.000  O 
  O3       1.0000 0.98400  0.85300  0.18700  Biso   1.000  O 
  O4       1.0000 0.75000  0.07530  0.19800  Biso   1.000  O 
  O5       1.0000 0.25000  0.57500  0.30200  Biso   1.000  O 
  O6       1.0000 0.01610  0.35300  0.31300  Biso   1.000  O 
  O7       1.0000 0.48400  0.35300  0.31300  Biso   1.000  O 
  O8       1.0000 0.75000  0.91100  0.48800  Biso   1.000  O 
  O9       1.0000 0.25000  0.08890  0.51200  Biso   1.000  O 
  O10      1.0000 0.51600  0.64700  0.68700  Biso   1.000  O 
  O11      1.0000 0.98400  0.64700  0.68700  Biso   1.000  O 
  O12      1.0000 0.75000  0.42500  0.69800  Biso   1.000  O 
  O13      1.0000 0.25000  0.92500  0.80200  Biso   1.000  O 
  O14      1.0000 0.01610  0.14700  0.81300  Biso   1.000  O 
  O15      1.0000 0.48400  0.14700  0.81300  Biso   1.000  O 
  O16      1.0000 0.75000  0.58900  0.98800  Biso   1.000  O 
  Si1      1.0000 0.25000  0.42200  0.23000  Biso   1.000  Si
  Si2      1.0000 0.75000  0.92200  0.27000  Biso   1.000  Si
  Si3      1.0000 0.25000  0.07800  0.73000  Biso   1.000  Si
  Si4      1.0000 0.75000  0.57800  0.77000  Biso   1.000  Si
