data_image0
_cell_length_a       6.79017
_cell_length_b       6.90712
_cell_length_c       7.05878
_cell_angle_alpha    107.683
_cell_angle_beta     118.749
_cell_angle_gamma    60.5585

_symmetry_space_group_name_H-M    "P 1"
_symmetry_int_tables_number       1

loop_
  _symmetry_equiv_pos_as_xyz
  'x, y, z'

loop_
  _atom_site_label
  _atom_site_occupancy
  _atom_site_fract_x
  _atom_site_fract_y
  _atom_site_fract_z
  _atom_site_thermal_displace_type
  _atom_site_B_iso_or_equiv
  _atom_site_type_symbol
  Cl1      1.0000 0.18500  0.79200  0.16100  Biso   1.000  Cl
  Cl2      1.0000 0.71300  0.76000  0.18500  Biso   1.000  Cl
  Cl3      1.0000 0.27800  0.25500  0.30100  Biso   1.000  Cl
  Cl4      1.0000 0.76700  0.25500  0.30100  Biso   1.000  Cl
  Cl5      1.0000 0.23300  0.74500  0.69900  Biso   1.000  Cl
  Cl6      1.0000 0.72200  0.74500  0.69900  Biso   1.000  Cl
  Cl7      1.0000 0.28700  0.24000  0.81500  Biso   1.000  Cl
  Cl8      1.0000 0.81500  0.20800  0.83900  Biso   1.000  Cl
  Ta1      1.0000 0.28100  0.00000  0.00000  Biso   1.000  Ta
  Ta2      1.0000 0.71900  0.00000  0.00000  Biso   1.000  Ta
