data_image0
_cell_length_a       7.36577
_cell_length_b       7.36577
_cell_length_c       7.36577
_cell_angle_alpha    90
_cell_angle_beta     90
_cell_angle_gamma    90

_symmetry_space_group_name_H-M    "P 1"
_symmetry_int_tables_number       1

loop_
  _symmetry_equiv_pos_as_xyz
  'x, y, z'

loop_
  _atom_site_label
  _atom_site_occupancy
  _atom_site_fract_x
  _atom_site_fract_y
  _atom_site_fract_z
  _atom_site_thermal_displace_type
  _atom_site_B_iso_or_equiv
  _atom_site_type_symbol
  Co1      1.0000 0.00000  0.00000  0.00000  Biso   1.000  Co
  Co2      1.0000 0.50000  0.50000  0.00000  Biso   1.000  Co
  Co3      1.0000 0.50000  0.00000  0.50000  Biso   1.000  Co
  Co4      1.0000 0.00000  0.50000  0.50000  Biso   1.000  Co
  N1       1.0000 0.81800  0.31800  0.18200  Biso   1.000  N 
  N2       1.0000 0.68200  0.81800  0.18200  Biso   1.000  N 
  N3       1.0000 0.31800  0.31800  0.31800  Biso   1.000  N 
  N4       1.0000 0.18200  0.81800  0.31800  Biso   1.000  N 
  N5       1.0000 0.81800  0.18200  0.68200  Biso   1.000  N 
  N6       1.0000 0.68200  0.68200  0.68200  Biso   1.000  N 
  N7       1.0000 0.31800  0.18200  0.81800  Biso   1.000  N 
  N8       1.0000 0.18200  0.68200  0.81800  Biso   1.000  N 
  O1       1.0000 0.70100  0.30900  0.05770  Biso   1.000  O 
  O2       1.0000 0.79900  0.80900  0.05770  Biso   1.000  O 
  O3       1.0000 0.94200  0.20100  0.19100  Biso   1.000  O 
  O4       1.0000 0.55800  0.70100  0.19100  Biso   1.000  O 
  O5       1.0000 0.30900  0.44200  0.20100  Biso   1.000  O 
  O6       1.0000 0.19100  0.94200  0.20100  Biso   1.000  O 
  O7       1.0000 0.80900  0.44200  0.29900  Biso   1.000  O 
  O8       1.0000 0.69100  0.94200  0.29900  Biso   1.000  O 
  O9       1.0000 0.44200  0.20100  0.30900  Biso   1.000  O 
  O10      1.0000 0.05770  0.70100  0.30900  Biso   1.000  O 
  O11      1.0000 0.20100  0.30900  0.44200  Biso   1.000  O 
  O12      1.0000 0.29900  0.80900  0.44200  Biso   1.000  O 
  O13      1.0000 0.70100  0.19100  0.55800  Biso   1.000  O 
  O14      1.0000 0.79900  0.69100  0.55800  Biso   1.000  O 
  O15      1.0000 0.94200  0.29900  0.69100  Biso   1.000  O 
  O16      1.0000 0.55800  0.79900  0.69100  Biso   1.000  O 
  O17      1.0000 0.30900  0.05770  0.70100  Biso   1.000  O 
  O18      1.0000 0.19100  0.55800  0.70100  Biso   1.000  O 
  O19      1.0000 0.80900  0.05770  0.79900  Biso   1.000  O 
  O20      1.0000 0.69100  0.55800  0.79900  Biso   1.000  O 
  O21      1.0000 0.44200  0.29900  0.80900  Biso   1.000  O 
  O22      1.0000 0.05770  0.79900  0.80900  Biso   1.000  O 
  O23      1.0000 0.20100  0.19100  0.94200  Biso   1.000  O 
  O24      1.0000 0.29900  0.69100  0.94200  Biso   1.000  O 
