data_image0
_cell_length_a       6.39367
_cell_length_b       6.39371
_cell_length_c       7.08295
_cell_angle_alpha    116.828
_cell_angle_beta     90.0032
_cell_angle_gamma    119.997

_symmetry_space_group_name_H-M    "P 1"
_symmetry_int_tables_number       1

loop_
  _symmetry_equiv_pos_as_xyz
  'x, y, z'

loop_
  _atom_site_label
  _atom_site_occupancy
  _atom_site_fract_x
  _atom_site_fract_y
  _atom_site_fract_z
  _atom_site_thermal_displace_type
  _atom_site_B_iso_or_equiv
  _atom_site_type_symbol
  S1       1.0000 0.07550  0.50000  0.25000  Biso   1.000  S 
  S2       1.0000 0.42400  0.17400  0.25000  Biso   1.000  S 
  S3       1.0000 0.75000  0.82500  0.25000  Biso   1.000  S 
  S4       1.0000 0.25000  0.17500  0.75000  Biso   1.000  S 
  S5       1.0000 0.57600  0.82600  0.75000  Biso   1.000  S 
  S6       1.0000 0.92500  0.50000  0.75000  Biso   1.000  S 
  Zr1      1.0000 0.33700  0.67300  0.00991  Biso   1.000  Zr
  Zr2      1.0000 0.16300  0.32700  0.49000  Biso   1.000  Zr
  Zr3      1.0000 0.83700  0.67300  0.51000  Biso   1.000  Zr
  Zr4      1.0000 0.66300  0.32700  0.99000  Biso   1.000  Zr
