data_image0
_cell_length_a       6.34954
_cell_length_b       6.34954
_cell_length_c       6.40159
_cell_angle_alpha    99.4453
_cell_angle_beta     99.4453
_cell_angle_gamma    119.864

_symmetry_space_group_name_H-M    "P 1"
_symmetry_int_tables_number       1

loop_
  _symmetry_equiv_pos_as_xyz
  'x, y, z'

loop_
  _atom_site_label
  _atom_site_occupancy
  _atom_site_fract_x
  _atom_site_fract_y
  _atom_site_fract_z
  _atom_site_thermal_displace_type
  _atom_site_B_iso_or_equiv
  _atom_site_type_symbol
  Br1      1.0000 0.92800  0.57700  0.23200  Biso   1.000  Br
  Br2      1.0000 0.57700  0.92800  0.23200  Biso   1.000  Br
  Br3      1.0000 0.22800  0.22800  0.23300  Biso   1.000  Br
  Br4      1.0000 0.77200  0.77200  0.76700  Biso   1.000  Br
  Br5      1.0000 0.42300  0.07220  0.76800  Biso   1.000  Br
  Br6      1.0000 0.07220  0.42300  0.76800  Biso   1.000  Br
  Rh1      1.0000 0.83300  0.16700  0.00000  Biso   1.000  Rh
  Rh2      1.0000 0.16700  0.83300  0.00000  Biso   1.000  Rh
