data_image0
_cell_length_a       6.71095
_cell_length_b       6.71095
_cell_length_c       6.71095
_cell_angle_alpha    116.475
_cell_angle_beta     106.087
_cell_angle_gamma    106.087

_symmetry_space_group_name_H-M    "P 1"
_symmetry_int_tables_number       1

loop_
  _symmetry_equiv_pos_as_xyz
  'x, y, z'

loop_
  _atom_site_label
  _atom_site_occupancy
  _atom_site_fract_x
  _atom_site_fract_y
  _atom_site_fract_z
  _atom_site_thermal_displace_type
  _atom_site_B_iso_or_equiv
  _atom_site_type_symbol
  Se1      1.0000 0.50000  0.31900  0.18100  Biso   1.000  Se
  Se2      1.0000 0.13700  0.81900  0.31900  Biso   1.000  Se
  Se3      1.0000 0.86300  0.18100  0.68100  Biso   1.000  Se
  Se4      1.0000 0.50000  0.68100  0.81900  Biso   1.000  Se
  Tl1      1.0000 0.00000  0.25000  0.25000  Biso   1.000  Tl
  Tl2      1.0000 0.50000  0.75000  0.25000  Biso   1.000  Tl
  Tl3      1.0000 0.50000  0.25000  0.75000  Biso   1.000  Tl
  Tl4      1.0000 0.00000  0.75000  0.75000  Biso   1.000  Tl
