data_image0
_cell_length_a       5.65706
_cell_length_b       7.05881
_cell_length_c       7.43121
_cell_angle_alpha    113.758
_cell_angle_beta     112.373
_cell_angle_gamma    90

_symmetry_space_group_name_H-M    "P 1"
_symmetry_int_tables_number       1

loop_
  _symmetry_equiv_pos_as_xyz
  'x, y, z'

loop_
  _atom_site_label
  _atom_site_occupancy
  _atom_site_fract_x
  _atom_site_fract_y
  _atom_site_fract_z
  _atom_site_thermal_displace_type
  _atom_site_B_iso_or_equiv
  _atom_site_type_symbol
  O1       1.0000 0.25300  0.00000  0.00000  Biso   1.000  O 
  O2       1.0000 0.74700  0.00000  0.00000  Biso   1.000  O 
  O3       1.0000 0.10700  0.42500  0.21400  Biso   1.000  O 
  O4       1.0000 0.36000  0.74900  0.28900  Biso   1.000  O 
  O5       1.0000 0.92900  0.74900  0.28900  Biso   1.000  O 
  O6       1.0000 0.71100  0.28300  0.42300  Biso   1.000  O 
  O7       1.0000 0.28900  0.71700  0.57700  Biso   1.000  O 
  O8       1.0000 0.07090  0.25100  0.71100  Biso   1.000  O 
  O9       1.0000 0.64000  0.25100  0.71100  Biso   1.000  O 
  O10      1.0000 0.89300  0.57500  0.78600  Biso   1.000  O 
  Pb1      1.0000 0.52500  0.27500  0.05060  Biso   1.000  Pb
  Pb2      1.0000 0.14900  0.10500  0.29700  Biso   1.000  Pb
  Pb3      1.0000 0.85100  0.89500  0.70300  Biso   1.000  Pb
  Pb4      1.0000 0.47500  0.72500  0.94900  Biso   1.000  Pb
  S1       1.0000 0.17100  0.65800  0.34100  Biso   1.000  S 
  S2       1.0000 0.82900  0.34200  0.65900  Biso   1.000  S 
