data_image0
_cell_length_a       6.76632
_cell_length_b       7.19471
_cell_length_c       6.99713
_cell_angle_alpha    90
_cell_angle_beta     104.684
_cell_angle_gamma    90

_symmetry_space_group_name_H-M    "P 1"
_symmetry_int_tables_number       1

loop_
  _symmetry_equiv_pos_as_xyz
  'x, y, z'

loop_
  _atom_site_label
  _atom_site_occupancy
  _atom_site_fract_x
  _atom_site_fract_y
  _atom_site_fract_z
  _atom_site_thermal_displace_type
  _atom_site_B_iso_or_equiv
  _atom_site_type_symbol
  As1      1.0000 0.88600  0.33600  0.19600  Biso   1.000  As
  As2      1.0000 0.61400  0.83600  0.30400  Biso   1.000  As
  As3      1.0000 0.38600  0.16400  0.69600  Biso   1.000  As
  As4      1.0000 0.11400  0.66400  0.80400  Biso   1.000  As
  La1      1.0000 0.40000  0.34600  0.21900  Biso   1.000  La
  La2      1.0000 0.09970  0.84600  0.28100  Biso   1.000  La
  La3      1.0000 0.90000  0.15400  0.71900  Biso   1.000  La
  La4      1.0000 0.60000  0.65400  0.78100  Biso   1.000  La
  O1       1.0000 0.67200  0.39000  0.01390  Biso   1.000  O 
  O2       1.0000 0.00572  0.15700  0.10800  Biso   1.000  O 
  O3       1.0000 0.72500  0.78500  0.11700  Biso   1.000  O 
  O4       1.0000 0.07190  0.50400  0.25000  Biso   1.000  O 
  O5       1.0000 0.42800  0.00417  0.25000  Biso   1.000  O 
  O6       1.0000 0.77500  0.28500  0.38300  Biso   1.000  O 
  O7       1.0000 0.49400  0.65700  0.39200  Biso   1.000  O 
  O8       1.0000 0.82800  0.89000  0.48600  Biso   1.000  O 
  O9       1.0000 0.17200  0.11000  0.51400  Biso   1.000  O 
  O10      1.0000 0.50600  0.34300  0.60800  Biso   1.000  O 
  O11      1.0000 0.22500  0.71500  0.61700  Biso   1.000  O 
  O12      1.0000 0.57200  0.99600  0.75000  Biso   1.000  O 
  O13      1.0000 0.92800  0.49600  0.75000  Biso   1.000  O 
  O14      1.0000 0.27500  0.21500  0.88300  Biso   1.000  O 
  O15      1.0000 0.99400  0.84300  0.89200  Biso   1.000  O 
  O16      1.0000 0.32800  0.61000  0.98600  Biso   1.000  O 
