data_image0
_cell_length_a       3.90533
_cell_length_b       4.39506
_cell_length_c       5.73706
_cell_angle_alpha    90
_cell_angle_beta     70.1012
_cell_angle_gamma    90

_symmetry_space_group_name_H-M    "P 1"
_symmetry_int_tables_number       1

loop_
  _symmetry_equiv_pos_as_xyz
  'x, y, z'

loop_
  _atom_site_label
  _atom_site_occupancy
  _atom_site_fract_x
  _atom_site_fract_y
  _atom_site_fract_z
  _atom_site_thermal_displace_type
  _atom_site_B_iso_or_equiv
  _atom_site_type_symbol
  Ce1      1.0000 0.86300  0.25000  0.27500  Biso   1.000  Ce
  Ce2      1.0000 0.13700  0.75000  0.72500  Biso   1.000  Ce
  Ni1      1.0000 0.42800  0.75000  0.14300  Biso   1.000  Ni
  Ni2      1.0000 0.57200  0.25000  0.85700  Biso   1.000  Ni
