data_image0
_cell_length_a       11.2367
_cell_length_b       10.6624
_cell_length_c       6.04283
_cell_angle_alpha    90
_cell_angle_beta     90
_cell_angle_gamma    90

_symmetry_space_group_name_H-M    "P 1"
_symmetry_int_tables_number       1

loop_
  _symmetry_equiv_pos_as_xyz
  'x, y, z'

loop_
  _atom_site_label
  _atom_site_occupancy
  _atom_site_fract_x
  _atom_site_fract_y
  _atom_site_fract_z
  _atom_site_thermal_displace_type
  _atom_site_B_iso_or_equiv
  _atom_site_type_symbol
  C1       1.0000 0.77400  0.62300  0.05900  Biso   1.000  C 
  C2       1.0000 0.77400  0.87700  0.05900  Biso   1.000  C 
  C3       1.0000 0.72000  0.25000  0.17800  Biso   1.000  C 
  C4       1.0000 0.02700  0.12500  0.18200  Biso   1.000  C 
  C5       1.0000 0.02700  0.37500  0.18200  Biso   1.000  C 
  C6       1.0000 0.96400  0.75000  0.20100  Biso   1.000  C 
  C7       1.0000 0.46400  0.75000  0.29900  Biso   1.000  C 
  C8       1.0000 0.52700  0.12500  0.31800  Biso   1.000  C 
  C9       1.0000 0.52700  0.37500  0.31800  Biso   1.000  C 
  C10      1.0000 0.22000  0.25000  0.32200  Biso   1.000  C 
  C11      1.0000 0.27400  0.62300  0.44100  Biso   1.000  C 
  C12      1.0000 0.27400  0.87700  0.44100  Biso   1.000  C 
  C13      1.0000 0.72600  0.12300  0.55900  Biso   1.000  C 
  C14      1.0000 0.72600  0.37700  0.55900  Biso   1.000  C 
  C15      1.0000 0.78000  0.75000  0.67800  Biso   1.000  C 
  C16      1.0000 0.47300  0.62500  0.68200  Biso   1.000  C 
  C17      1.0000 0.47300  0.87500  0.68200  Biso   1.000  C 
  C18      1.0000 0.53600  0.25000  0.70100  Biso   1.000  C 
  C19      1.0000 0.03570  0.25000  0.79900  Biso   1.000  C 
  C20      1.0000 0.97300  0.62500  0.81800  Biso   1.000  C 
  C21      1.0000 0.97300  0.87500  0.81800  Biso   1.000  C 
  C22      1.0000 0.28000  0.75000  0.82200  Biso   1.000  C 
  C23      1.0000 0.22600  0.12300  0.94100  Biso   1.000  C 
  C24      1.0000 0.22600  0.37700  0.94100  Biso   1.000  C 
  Cr1      1.0000 0.12700  0.25000  0.06180  Biso   1.000  Cr
  Cr2      1.0000 0.62700  0.25000  0.43800  Biso   1.000  Cr
  Cr3      1.0000 0.37300  0.75000  0.56200  Biso   1.000  Cr
  Cr4      1.0000 0.87300  0.75000  0.93800  Biso   1.000  Cr
  O1       1.0000 0.77800  0.25000  0.01800  Biso   1.000  O 
  O2       1.0000 0.71500  0.54500  0.13300  Biso   1.000  O 
  O3       1.0000 0.71500  0.95500  0.13300  Biso   1.000  O 
  O4       1.0000 0.51900  0.75000  0.13700  Biso   1.000  O 
  O5       1.0000 0.46500  0.04860  0.24600  Biso   1.000  O 
  O6       1.0000 0.46500  0.45100  0.24600  Biso   1.000  O 
  O7       1.0000 0.96500  0.04860  0.25400  Biso   1.000  O 
  O8       1.0000 0.96500  0.45100  0.25400  Biso   1.000  O 
  O9       1.0000 0.01920  0.75000  0.36300  Biso   1.000  O 
  O10      1.0000 0.21500  0.54500  0.36700  Biso   1.000  O 
  O11      1.0000 0.21500  0.95500  0.36700  Biso   1.000  O 
  O12      1.0000 0.27800  0.25000  0.48200  Biso   1.000  O 
  O13      1.0000 0.72200  0.75000  0.51800  Biso   1.000  O 
  O14      1.0000 0.78500  0.04490  0.63300  Biso   1.000  O 
  O15      1.0000 0.78500  0.45500  0.63300  Biso   1.000  O 
  O16      1.0000 0.98100  0.25000  0.63700  Biso   1.000  O 
  O17      1.0000 0.03530  0.54900  0.74600  Biso   1.000  O 
  O18      1.0000 0.03530  0.95100  0.74600  Biso   1.000  O 
  O19      1.0000 0.53500  0.54900  0.75400  Biso   1.000  O 
  O20      1.0000 0.53500  0.95100  0.75400  Biso   1.000  O 
  O21      1.0000 0.48100  0.25000  0.86300  Biso   1.000  O 
  O22      1.0000 0.28500  0.04490  0.86700  Biso   1.000  O 
  O23      1.0000 0.28500  0.45500  0.86700  Biso   1.000  O 
  O24      1.0000 0.22200  0.75000  0.98200  Biso   1.000  O 
