data_image0
_cell_length_a       4.66983
_cell_length_b       4.66983
_cell_length_c       5.6331
_cell_angle_alpha    114.488
_cell_angle_beta     114.488
_cell_angle_gamma    60

_symmetry_space_group_name_H-M    "P 1"
_symmetry_int_tables_number       1

loop_
  _symmetry_equiv_pos_as_xyz
  'x, y, z'

loop_
  _atom_site_label
  _atom_site_occupancy
  _atom_site_fract_x
  _atom_site_fract_y
  _atom_site_fract_z
  _atom_site_thermal_displace_type
  _atom_site_B_iso_or_equiv
  _atom_site_type_symbol
  C1       1.0000 0.75000  0.75000  0.25000  Biso   1.000  C 
  C2       1.0000 0.25000  0.25000  0.75000  Biso   1.000  C 
  O1       1.0000 0.75000  0.02690  0.25000  Biso   1.000  O 
  O2       1.0000 0.02690  0.47300  0.25000  Biso   1.000  O 
  O3       1.0000 0.47300  0.75000  0.25000  Biso   1.000  O 
  O4       1.0000 0.52700  0.25000  0.75000  Biso   1.000  O 
  O5       1.0000 0.97300  0.52700  0.75000  Biso   1.000  O 
  O6       1.0000 0.25000  0.97300  0.75000  Biso   1.000  O 
  Zn1      1.0000 0.00000  0.00000  0.00000  Biso   1.000  Zn
  Zn2      1.0000 0.50000  0.50000  0.50000  Biso   1.000  Zn
