data_image0
_cell_length_a       4.4868
_cell_length_b       6.93319
_cell_length_c       12.0198
_cell_angle_alpha    90
_cell_angle_beta     90
_cell_angle_gamma    90

_symmetry_space_group_name_H-M    "P 1"
_symmetry_int_tables_number       1

loop_
  _symmetry_equiv_pos_as_xyz
  'x, y, z'

loop_
  _atom_site_label
  _atom_site_occupancy
  _atom_site_fract_x
  _atom_site_fract_y
  _atom_site_fract_z
  _atom_site_thermal_displace_type
  _atom_site_B_iso_or_equiv
  _atom_site_type_symbol
  C1       1.0000 0.03380  0.75000  0.06300  Biso   1.000  C 
  C2       1.0000 0.53200  0.03360  0.15600  Biso   1.000  C 
  C3       1.0000 0.53200  0.46600  0.15600  Biso   1.000  C 
  C4       1.0000 0.03200  0.03360  0.34400  Biso   1.000  C 
  C5       1.0000 0.03200  0.46600  0.34400  Biso   1.000  C 
  C6       1.0000 0.53400  0.75000  0.43700  Biso   1.000  C 
  C7       1.0000 0.46600  0.25000  0.56300  Biso   1.000  C 
  C8       1.0000 0.96800  0.53400  0.65600  Biso   1.000  C 
  C9       1.0000 0.96800  0.96600  0.65600  Biso   1.000  C 
  C10      1.0000 0.46800  0.53400  0.84400  Biso   1.000  C 
  C11      1.0000 0.46800  0.96600  0.84400  Biso   1.000  C 
  C12      1.0000 0.96600  0.25000  0.93700  Biso   1.000  C 
  Cr1      1.0000 0.25100  0.06700  0.02150  Biso   1.000  Cr
  Cr2      1.0000 0.25100  0.43300  0.02150  Biso   1.000  Cr
  Cr3      1.0000 0.75900  0.25000  0.08340  Biso   1.000  Cr
  Cr4      1.0000 0.44400  0.75000  0.12700  Biso   1.000  Cr
  Cr5      1.0000 0.94300  0.56500  0.18800  Biso   1.000  Cr
  Cr6      1.0000 0.94300  0.93500  0.18800  Biso   1.000  Cr
  Cr7      1.0000 0.24100  0.25000  0.20400  Biso   1.000  Cr
  Cr8      1.0000 0.74100  0.25000  0.29600  Biso   1.000  Cr
  Cr9      1.0000 0.44300  0.56500  0.31200  Biso   1.000  Cr
  Cr10     1.0000 0.44300  0.93500  0.31200  Biso   1.000  Cr
  Cr11     1.0000 0.94400  0.75000  0.37300  Biso   1.000  Cr
  Cr12     1.0000 0.25900  0.25000  0.41700  Biso   1.000  Cr
  Cr13     1.0000 0.75100  0.06700  0.47900  Biso   1.000  Cr
  Cr14     1.0000 0.75100  0.43300  0.47900  Biso   1.000  Cr
  Cr15     1.0000 0.24900  0.56700  0.52100  Biso   1.000  Cr
  Cr16     1.0000 0.24900  0.93300  0.52100  Biso   1.000  Cr
  Cr17     1.0000 0.74100  0.75000  0.58300  Biso   1.000  Cr
  Cr18     1.0000 0.05590  0.25000  0.62700  Biso   1.000  Cr
  Cr19     1.0000 0.55700  0.06510  0.68800  Biso   1.000  Cr
  Cr20     1.0000 0.55700  0.43500  0.68800  Biso   1.000  Cr
  Cr21     1.0000 0.25900  0.75000  0.70400  Biso   1.000  Cr
  Cr22     1.0000 0.75900  0.75000  0.79600  Biso   1.000  Cr
  Cr23     1.0000 0.05710  0.06510  0.81200  Biso   1.000  Cr
  Cr24     1.0000 0.05710  0.43500  0.81200  Biso   1.000  Cr
  Cr25     1.0000 0.55600  0.25000  0.87300  Biso   1.000  Cr
  Cr26     1.0000 0.24100  0.75000  0.91700  Biso   1.000  Cr
  Cr27     1.0000 0.74900  0.56700  0.97900  Biso   1.000  Cr
  Cr28     1.0000 0.74900  0.93300  0.97900  Biso   1.000  Cr
