data_image0
_cell_length_a       6.73336
_cell_length_b       6.73336
_cell_length_c       5.68343
_cell_angle_alpha    77.1292
_cell_angle_beta     102.871
_cell_angle_gamma    99.1693

_symmetry_space_group_name_H-M    "P 1"
_symmetry_int_tables_number       1

loop_
  _symmetry_equiv_pos_as_xyz
  'x, y, z'

loop_
  _atom_site_label
  _atom_site_occupancy
  _atom_site_fract_x
  _atom_site_fract_y
  _atom_site_fract_z
  _atom_site_thermal_displace_type
  _atom_site_B_iso_or_equiv
  _atom_site_type_symbol
  Na1      1.0000 0.68900  0.68900  0.75000  Biso   1.000  Na
  Na2      1.0000 0.31100  0.31100  0.25000  Biso   1.000  Na
  Na3      1.0000 0.91600  0.91600  0.25000  Biso   1.000  Na
  Na4      1.0000 0.08360  0.08360  0.75000  Biso   1.000  Na
  O1       1.0000 0.39600  0.67500  0.01040  Biso   1.000  O 
  O2       1.0000 0.67500  0.39600  0.49000  Biso   1.000  O 
  O3       1.0000 0.60400  0.32500  0.99000  Biso   1.000  O 
  O4       1.0000 0.32500  0.60400  0.51000  Biso   1.000  O 
  O5       1.0000 0.61800  0.91600  0.35700  Biso   1.000  O 
  O6       1.0000 0.91600  0.61800  0.14300  Biso   1.000  O 
  O7       1.0000 0.38200  0.08400  0.64300  Biso   1.000  O 
  O8       1.0000 0.08400  0.38200  0.85700  Biso   1.000  O 
  O9       1.0000 0.23100  0.98700  0.15200  Biso   1.000  O 
  O10      1.0000 0.98700  0.23100  0.34800  Biso   1.000  O 
  O11      1.0000 0.76900  0.01310  0.84800  Biso   1.000  O 
  O12      1.0000 0.01310  0.76900  0.65200  Biso   1.000  O 
  V1       1.0000 0.38700  0.80500  0.25400  Biso   1.000  V 
  V2       1.0000 0.80500  0.38700  0.24600  Biso   1.000  V 
  V3       1.0000 0.61300  0.19500  0.74600  Biso   1.000  V 
  V4       1.0000 0.19500  0.61300  0.75400  Biso   1.000  V 
