data_image0
_cell_length_a       5.52748
_cell_length_b       6.84608
_cell_length_c       11.1338
_cell_angle_alpha    93.9117
_cell_angle_beta     104.373
_cell_angle_gamma    113.809

_symmetry_space_group_name_H-M    "P 1"
_symmetry_int_tables_number       1

loop_
  _symmetry_equiv_pos_as_xyz
  'x, y, z'

loop_
  _atom_site_label
  _atom_site_occupancy
  _atom_site_fract_x
  _atom_site_fract_y
  _atom_site_fract_z
  _atom_site_thermal_displace_type
  _atom_site_B_iso_or_equiv
  _atom_site_type_symbol
  K1       1.0000 0.00000  0.00000  0.00000  Biso   1.000  K 
  K2       1.0000 0.41100  0.65600  0.16500  Biso   1.000  K 
  K3       1.0000 0.29100  0.19000  0.39100  Biso   1.000  K 
  K4       1.0000 0.70900  0.81000  0.60900  Biso   1.000  K 
  K5       1.0000 0.58900  0.34400  0.83500  Biso   1.000  K 
  Sb1      1.0000 0.72000  0.26400  0.17500  Biso   1.000  Sb
  Sb2      1.0000 0.99600  0.60200  0.39100  Biso   1.000  Sb
  Sb3      1.0000 0.00354  0.39800  0.60900  Biso   1.000  Sb
  Sb4      1.0000 0.28000  0.73600  0.82500  Biso   1.000  Sb
