data_image0
_cell_length_a       6.09946
_cell_length_b       6.09946
_cell_length_c       6.83778
_cell_angle_alpha    63.5119
_cell_angle_beta     116.488
_cell_angle_gamma    120

_symmetry_space_group_name_H-M    "P 1"
_symmetry_int_tables_number       1

loop_
  _symmetry_equiv_pos_as_xyz
  'x, y, z'

loop_
  _atom_site_label
  _atom_site_occupancy
  _atom_site_fract_x
  _atom_site_fract_y
  _atom_site_fract_z
  _atom_site_thermal_displace_type
  _atom_site_B_iso_or_equiv
  _atom_site_type_symbol
  Cl1      1.0000 0.71800  0.92200  0.23400  Biso   1.000  Cl
  Cl2      1.0000 0.07770  0.56200  0.23400  Biso   1.000  Cl
  Cl3      1.0000 0.43800  0.28200  0.23400  Biso   1.000  Cl
  Cl4      1.0000 0.56200  0.71800  0.76600  Biso   1.000  Cl
  Cl5      1.0000 0.92200  0.43800  0.76600  Biso   1.000  Cl
  Cl6      1.0000 0.28200  0.07770  0.76600  Biso   1.000  Cl
  Fe1      1.0000 0.66700  0.33300  0.00000  Biso   1.000  Fe
  Fe2      1.0000 0.33300  0.66700  0.00011  Biso   1.000  Fe
