data_image0
_cell_length_a       2.50193
_cell_length_b       2.50247
_cell_length_c       3.3473
_cell_angle_alpha    68.0542
_cell_angle_beta     111.945
_cell_angle_gamma    119.993

_symmetry_space_group_name_H-M    "P 1"
_symmetry_int_tables_number       1

loop_
  _symmetry_equiv_pos_as_xyz
  'x, y, z'

loop_
  _atom_site_label
  _atom_site_occupancy
  _atom_site_fract_x
  _atom_site_fract_y
  _atom_site_fract_z
  _atom_site_thermal_displace_type
  _atom_site_B_iso_or_equiv
  _atom_site_type_symbol
  B1       1.0000 0.00000  0.00035  0.00000  Biso   1.000  B 
  N1       1.0000 0.66800  0.33200  0.00296  Biso   1.000  N 
