data_image0
_cell_length_a       9.34375
_cell_length_b       9.34375
_cell_length_c       9.34375
_cell_angle_alpha    23.9012
_cell_angle_beta     23.9012
_cell_angle_gamma    23.9012

_symmetry_space_group_name_H-M    "P 1"
_symmetry_int_tables_number       1

loop_
  _symmetry_equiv_pos_as_xyz
  'x, y, z'

loop_
  _atom_site_label
  _atom_site_occupancy
  _atom_site_fract_x
  _atom_site_fract_y
  _atom_site_fract_z
  _atom_site_thermal_displace_type
  _atom_site_B_iso_or_equiv
  _atom_site_type_symbol
  N1       1.0000 0.13200  0.13200  0.13200  Biso   1.000  N 
  N2       1.0000 0.37700  0.37700  0.37700  Biso   1.000  N 
  N3       1.0000 0.62300  0.62300  0.62300  Biso   1.000  N 
  N4       1.0000 0.86800  0.86800  0.86800  Biso   1.000  N 
  Th1      1.0000 0.00000  0.00000  0.00000  Biso   1.000  Th
  Th2      1.0000 0.22200  0.22200  0.22200  Biso   1.000  Th
  Th3      1.0000 0.77800  0.77800  0.77800  Biso   1.000  Th
