data_image0
_cell_length_a       13.2158
_cell_length_b       5.28464
_cell_length_c       9.29775
_cell_angle_alpha    90
_cell_angle_beta     91.9427
_cell_angle_gamma    90

_symmetry_space_group_name_H-M    "P 1"
_symmetry_int_tables_number       1

loop_
  _symmetry_equiv_pos_as_xyz
  'x, y, z'

loop_
  _atom_site_label
  _atom_site_occupancy
  _atom_site_fract_x
  _atom_site_fract_y
  _atom_site_fract_z
  _atom_site_thermal_displace_type
  _atom_site_B_iso_or_equiv
  _atom_site_type_symbol
  Ca1      1.0000 0.92000  0.77300  0.07500  Biso   1.000  Ca
  Ca2      1.0000 0.42000  0.72700  0.07500  Biso   1.000  Ca
  Ca3      1.0000 0.75600  0.32400  0.22200  Biso   1.000  Ca
  Ca4      1.0000 0.25600  0.17600  0.22200  Biso   1.000  Ca
  Ca5      1.0000 0.59700  0.76500  0.42500  Biso   1.000  Ca
  Ca6      1.0000 0.09660  0.73500  0.42500  Biso   1.000  Ca
  Ca7      1.0000 0.90300  0.26500  0.57500  Biso   1.000  Ca
  Ca8      1.0000 0.40300  0.23500  0.57500  Biso   1.000  Ca
  Ca9      1.0000 0.74400  0.82400  0.77800  Biso   1.000  Ca
  Ca10     1.0000 0.24400  0.67600  0.77800  Biso   1.000  Ca
  Ca11     1.0000 0.58000  0.27300  0.92500  Biso   1.000  Ca
  Ca12     1.0000 0.07970  0.22700  0.92500  Biso   1.000  Ca
  Mg1      1.0000 0.00394  0.25700  0.25400  Biso   1.000  Mg
  Mg2      1.0000 0.50400  0.24300  0.25400  Biso   1.000  Mg
  Mg3      1.0000 0.49600  0.75700  0.74600  Biso   1.000  Mg
  Mg4      1.0000 0.99600  0.74300  0.74600  Biso   1.000  Mg
  O1       1.0000 0.92400  0.29900  0.05950  Biso   1.000  O 
  O2       1.0000 0.42400  0.20100  0.05950  Biso   1.000  O 
  O3       1.0000 0.75700  0.68700  0.06670  Biso   1.000  O 
  O4       1.0000 0.25700  0.81300  0.06670  Biso   1.000  O 
  O5       1.0000 0.58300  0.54200  0.17600  Biso   1.000  O 
  O6       1.0000 0.08310  0.95800  0.17600  Biso   1.000  O 
  O7       1.0000 0.62800  0.02990  0.18900  Biso   1.000  O 
  O8       1.0000 0.12800  0.47000  0.18900  Biso   1.000  O 
  O9       1.0000 0.93700  0.58200  0.30400  Biso   1.000  O 
  O10      1.0000 0.43700  0.91800  0.30400  Biso   1.000  O 
  O11      1.0000 0.87400  0.05230  0.32100  Biso   1.000  O 
  O12      1.0000 0.37400  0.44800  0.32100  Biso   1.000  O 
  O13      1.0000 0.75700  0.63600  0.40600  Biso   1.000  O 
  O14      1.0000 0.25700  0.86400  0.40600  Biso   1.000  O 
  O15      1.0000 0.07220  0.21000  0.44600  Biso   1.000  O 
  O16      1.0000 0.57200  0.29000  0.44600  Biso   1.000  O 
  O17      1.0000 0.42800  0.71000  0.55400  Biso   1.000  O 
  O18      1.0000 0.92800  0.79000  0.55400  Biso   1.000  O 
  O19      1.0000 0.74300  0.13600  0.59400  Biso   1.000  O 
  O20      1.0000 0.24300  0.36400  0.59400  Biso   1.000  O 
  O21      1.0000 0.62600  0.55200  0.67900  Biso   1.000  O 
  O22      1.0000 0.12600  0.94800  0.67900  Biso   1.000  O 
  O23      1.0000 0.56300  0.08230  0.69600  Biso   1.000  O 
  O24      1.0000 0.06320  0.41800  0.69600  Biso   1.000  O 
  O25      1.0000 0.87200  0.53000  0.81100  Biso   1.000  O 
  O26      1.0000 0.37200  0.97000  0.81100  Biso   1.000  O 
  O27      1.0000 0.91700  0.04180  0.82400  Biso   1.000  O 
  O28      1.0000 0.41700  0.45800  0.82400  Biso   1.000  O 
  O29      1.0000 0.74300  0.18700  0.93300  Biso   1.000  O 
  O30      1.0000 0.24300  0.31300  0.93300  Biso   1.000  O 
  O31      1.0000 0.57600  0.79900  0.94000  Biso   1.000  O 
  O32      1.0000 0.07620  0.70100  0.94000  Biso   1.000  O 
  Si1      1.0000 0.64200  0.77500  0.09400  Biso   1.000  Si
  Si2      1.0000 0.14200  0.72500  0.09400  Biso   1.000  Si
  Si3      1.0000 0.86600  0.77300  0.39900  Biso   1.000  Si
  Si4      1.0000 0.36600  0.72700  0.39900  Biso   1.000  Si
  Si5      1.0000 0.63400  0.27300  0.60100  Biso   1.000  Si
  Si6      1.0000 0.13400  0.22700  0.60100  Biso   1.000  Si
  Si7      1.0000 0.85800  0.27500  0.90600  Biso   1.000  Si
  Si8      1.0000 0.35800  0.22500  0.90600  Biso   1.000  Si
