data_image0
_cell_length_a       3.04584
_cell_length_b       3.04584
_cell_length_c       13.8297
_cell_angle_alpha    90
_cell_angle_beta     90
_cell_angle_gamma    120

_symmetry_space_group_name_H-M    "P 1"
_symmetry_int_tables_number       1

loop_
  _symmetry_equiv_pos_as_xyz
  'x, y, z'

loop_
  _atom_site_label
  _atom_site_occupancy
  _atom_site_fract_x
  _atom_site_fract_y
  _atom_site_fract_z
  _atom_site_thermal_displace_type
  _atom_site_B_iso_or_equiv
  _atom_site_type_symbol
  Cu1      1.0000 0.00000  0.00000  0.68500  Biso   1.000  Cu
  Cu2      1.0000 0.66700  0.33300  0.81500  Biso   1.000  Cu
  Mg1      1.0000 0.00000  0.00000  0.96300  Biso   1.000  Mg
  Mg2      1.0000 0.66700  0.33300  0.15400  Biso   1.000  Mg
  Mg3      1.0000 0.00000  0.00000  0.34600  Biso   1.000  Mg
  Mg4      1.0000 0.66700  0.33300  0.53700  Biso   1.000  Mg
