data_image0
_cell_length_a       10.5872
_cell_length_b       2.9055
_cell_length_c       4.51381
_cell_angle_alpha    90
_cell_angle_beta     90
_cell_angle_gamma    90

_symmetry_space_group_name_H-M    "P 1"
_symmetry_int_tables_number       1

loop_
  _symmetry_equiv_pos_as_xyz
  'x, y, z'

loop_
  _atom_site_label
  _atom_site_occupancy
  _atom_site_fract_x
  _atom_site_fract_y
  _atom_site_fract_z
  _atom_site_thermal_displace_type
  _atom_site_B_iso_or_equiv
  _atom_site_type_symbol
  H1       1.0000 0.39100  0.25000  0.90900  Biso   1.000  H 
  H2       1.0000 0.60900  0.75000  0.09150  Biso   1.000  H 
  H3       1.0000 0.10900  0.75000  0.40800  Biso   1.000  H 
  H4       1.0000 0.89100  0.25000  0.59200  Biso   1.000  H 
  Mn1      1.0000 0.86300  0.75000  0.05770  Biso   1.000  Mn
  Mn2      1.0000 0.36300  0.75000  0.44200  Biso   1.000  Mn
  Mn3      1.0000 0.63700  0.25000  0.55800  Biso   1.000  Mn
  Mn4      1.0000 0.13700  0.25000  0.94200  Biso   1.000  Mn
  O1       1.0000 0.31500  0.25000  0.18400  Biso   1.000  O 
  O2       1.0000 0.06950  0.75000  0.19700  Biso   1.000  O 
  O3       1.0000 0.57000  0.75000  0.30300  Biso   1.000  O 
  O4       1.0000 0.81500  0.25000  0.31600  Biso   1.000  O 
  O5       1.0000 0.18500  0.75000  0.68400  Biso   1.000  O 
  O6       1.0000 0.43000  0.25000  0.69700  Biso   1.000  O 
  O7       1.0000 0.93000  0.25000  0.80300  Biso   1.000  O 
  O8       1.0000 0.68500  0.75000  0.81600  Biso   1.000  O 
