data_image0
_cell_length_a       7.33838
_cell_length_b       7.33838
_cell_length_c       7.62692
_cell_angle_alpha    118.756
_cell_angle_beta     61.2438
_cell_angle_gamma    120

_symmetry_space_group_name_H-M    "P 1"
_symmetry_int_tables_number       1

loop_
  _symmetry_equiv_pos_as_xyz
  'x, y, z'

loop_
  _atom_site_label
  _atom_site_occupancy
  _atom_site_fract_x
  _atom_site_fract_y
  _atom_site_fract_z
  _atom_site_thermal_displace_type
  _atom_site_B_iso_or_equiv
  _atom_site_type_symbol
  La1      1.0000 0.64500  0.35500  0.06620  Biso   1.000  La
  La2      1.0000 0.85500  0.14500  0.43400  Biso   1.000  La
  La3      1.0000 0.14500  0.85500  0.56600  Biso   1.000  La
  La4      1.0000 0.35500  0.64500  0.93400  Biso   1.000  La
  S1       1.0000 0.95900  0.45900  0.25000  Biso   1.000  S 
  S2       1.0000 0.54100  0.75000  0.25000  Biso   1.000  S 
  S3       1.0000 0.25000  0.04120  0.25000  Biso   1.000  S 
  S4       1.0000 0.75000  0.95900  0.75000  Biso   1.000  S 
  S5       1.0000 0.45900  0.25000  0.75000  Biso   1.000  S 
  S6       1.0000 0.04120  0.54100  0.75000  Biso   1.000  S 
