data_image0
_cell_length_a       6.47307
_cell_length_b       6.90982
_cell_length_c       6.90982
_cell_angle_alpha    119.867
_cell_angle_beta     100.537
_cell_angle_gamma    100.537

_symmetry_space_group_name_H-M    "P 1"
_symmetry_int_tables_number       1

loop_
  _symmetry_equiv_pos_as_xyz
  'x, y, z'

loop_
  _atom_site_label
  _atom_site_occupancy
  _atom_site_fract_x
  _atom_site_fract_y
  _atom_site_fract_z
  _atom_site_thermal_displace_type
  _atom_site_B_iso_or_equiv
  _atom_site_type_symbol
  Cl1      1.0000 0.75800  0.41800  0.05670  Biso   1.000  Cl
  Cl2      1.0000 0.25100  0.21700  0.21700  Biso   1.000  Cl
  Cl3      1.0000 0.75800  0.05670  0.41800  Biso   1.000  Cl
  Cl4      1.0000 0.24200  0.94300  0.58200  Biso   1.000  Cl
  Cl5      1.0000 0.74900  0.78300  0.78300  Biso   1.000  Cl
  Cl6      1.0000 0.24200  0.58200  0.94300  Biso   1.000  Cl
  Y1       1.0000 0.00000  0.83400  0.16600  Biso   1.000  Y 
  Y2       1.0000 0.00000  0.16600  0.83400  Biso   1.000  Y 
