data_image0
_cell_length_a       6.75017
_cell_length_b       6.75017
_cell_length_c       6.75017
_cell_angle_alpha    90
_cell_angle_beta     90
_cell_angle_gamma    90

_symmetry_space_group_name_H-M    "P 1"
_symmetry_int_tables_number       1

loop_
  _symmetry_equiv_pos_as_xyz
  'x, y, z'

loop_
  _atom_site_label
  _atom_site_occupancy
  _atom_site_fract_x
  _atom_site_fract_y
  _atom_site_fract_z
  _atom_site_thermal_displace_type
  _atom_site_B_iso_or_equiv
  _atom_site_type_symbol
  Au1      1.0000 0.00000  0.00000  0.00000  Biso   1.000  Au
  Au2      1.0000 0.50000  0.50000  0.00000  Biso   1.000  Au
  Au3      1.0000 0.50000  0.00000  0.50000  Biso   1.000  Au
  Au4      1.0000 0.00000  0.50000  0.50000  Biso   1.000  Au
  Sb1      1.0000 0.87600  0.37600  0.12400  Biso   1.000  Sb
  Sb2      1.0000 0.62400  0.87600  0.12400  Biso   1.000  Sb
  Sb3      1.0000 0.37600  0.37600  0.37600  Biso   1.000  Sb
  Sb4      1.0000 0.12400  0.87600  0.37600  Biso   1.000  Sb
  Sb5      1.0000 0.87600  0.12400  0.62400  Biso   1.000  Sb
  Sb6      1.0000 0.62400  0.62400  0.62400  Biso   1.000  Sb
  Sb7      1.0000 0.37600  0.12400  0.87600  Biso   1.000  Sb
  Sb8      1.0000 0.12400  0.62400  0.87600  Biso   1.000  Sb
