data_image0
_cell_length_a       8.47998
_cell_length_b       11.1016
_cell_length_c       11.5118
_cell_angle_alpha    90
_cell_angle_beta     90
_cell_angle_gamma    90

_symmetry_space_group_name_H-M    "P 1"
_symmetry_int_tables_number       1

loop_
  _symmetry_equiv_pos_as_xyz
  'x, y, z'

loop_
  _atom_site_label
  _atom_site_occupancy
  _atom_site_fract_x
  _atom_site_fract_y
  _atom_site_fract_z
  _atom_site_thermal_displace_type
  _atom_site_B_iso_or_equiv
  _atom_site_type_symbol
  I1       1.0000 0.34800  0.19400  0.04210  Biso   1.000  I 
  I2       1.0000 0.15200  0.80600  0.04210  Biso   1.000  I 
  I3       1.0000 0.99200  0.45500  0.18400  Biso   1.000  I 
  I4       1.0000 0.50800  0.54500  0.18400  Biso   1.000  I 
  I5       1.0000 0.99200  0.04510  0.31600  Biso   1.000  I 
  I6       1.0000 0.50800  0.95500  0.31600  Biso   1.000  I 
  I7       1.0000 0.34800  0.30600  0.45800  Biso   1.000  I 
  I8       1.0000 0.15200  0.69400  0.45800  Biso   1.000  I 
  I9       1.0000 0.84800  0.30600  0.54200  Biso   1.000  I 
  I10      1.0000 0.65200  0.69400  0.54200  Biso   1.000  I 
  I11      1.0000 0.49200  0.04510  0.68400  Biso   1.000  I 
  I12      1.0000 0.00787  0.95500  0.68400  Biso   1.000  I 
  I13      1.0000 0.49200  0.45500  0.81600  Biso   1.000  I 
  I14      1.0000 0.00787  0.54500  0.81600  Biso   1.000  I 
  I15      1.0000 0.84800  0.19400  0.95800  Biso   1.000  I 
  I16      1.0000 0.65200  0.80600  0.95800  Biso   1.000  I 
  In1      1.0000 0.25000  0.00000  0.17400  Biso   1.000  In
  In2      1.0000 0.65900  0.25000  0.25000  Biso   1.000  In
  In3      1.0000 0.84100  0.75000  0.25000  Biso   1.000  In
  In4      1.0000 0.25000  0.50000  0.32600  Biso   1.000  In
  In5      1.0000 0.75000  0.50000  0.67400  Biso   1.000  In
  In6      1.0000 0.15900  0.25000  0.75000  Biso   1.000  In
  In7      1.0000 0.34100  0.75000  0.75000  Biso   1.000  In
  In8      1.0000 0.75000  0.00000  0.82600  Biso   1.000  In
