data_image0
_cell_length_a       8.6019
_cell_length_b       8.6019
_cell_length_c       8.6019
_cell_angle_alpha    109.471
_cell_angle_beta     109.471
_cell_angle_gamma    109.471

_symmetry_space_group_name_H-M    "P 1"
_symmetry_int_tables_number       1

loop_
  _symmetry_equiv_pos_as_xyz
  'x, y, z'

loop_
  _atom_site_label
  _atom_site_occupancy
  _atom_site_fract_x
  _atom_site_fract_y
  _atom_site_fract_z
  _atom_site_thermal_displace_type
  _atom_site_B_iso_or_equiv
  _atom_site_type_symbol
  Mg1      1.0000 0.04200  0.27000  0.00725  Biso   1.000  Mg
  Mg2      1.0000 0.49300  0.76300  0.03480  Biso   1.000  Mg
  Mg3      1.0000 0.27000  0.00725  0.04200  Biso   1.000  Mg
  Mg4      1.0000 0.45800  0.46500  0.22800  Biso   1.000  Mg
  Mg5      1.0000 0.27200  0.73700  0.23000  Biso   1.000  Mg
  Mg6      1.0000 0.96500  0.50700  0.23700  Biso   1.000  Mg
  Mg7      1.0000 0.77000  0.72800  0.26300  Biso   1.000  Mg
  Mg8      1.0000 0.00725  0.04200  0.27000  Biso   1.000  Mg
  Mg9      1.0000 0.73700  0.23000  0.27200  Biso   1.000  Mg
  Mg10     1.0000 0.46500  0.22800  0.45800  Biso   1.000  Mg
  Mg11     1.0000 0.22800  0.45800  0.46500  Biso   1.000  Mg
  Mg12     1.0000 0.76300  0.03480  0.49300  Biso   1.000  Mg
  Mg13     1.0000 0.23700  0.96500  0.50700  Biso   1.000  Mg
  Mg14     1.0000 0.77200  0.54200  0.53500  Biso   1.000  Mg
  Mg15     1.0000 0.53500  0.77200  0.54200  Biso   1.000  Mg
  Mg16     1.0000 0.26300  0.77000  0.72800  Biso   1.000  Mg
  Mg17     1.0000 0.99300  0.95800  0.73000  Biso   1.000  Mg
  Mg18     1.0000 0.23000  0.27200  0.73700  Biso   1.000  Mg
  Mg19     1.0000 0.03480  0.49300  0.76300  Biso   1.000  Mg
  Mg20     1.0000 0.72800  0.26300  0.77000  Biso   1.000  Mg
  Mg21     1.0000 0.54200  0.53500  0.77200  Biso   1.000  Mg
  Mg22     1.0000 0.73000  0.99300  0.95800  Biso   1.000  Mg
  Mg23     1.0000 0.50700  0.23700  0.96500  Biso   1.000  Mg
  Mg24     1.0000 0.95800  0.73000  0.99300  Biso   1.000  Mg
  N1       1.0000 0.50000  0.00000  0.00000  Biso   1.000  N 
  N2       1.0000 0.00000  0.50000  0.00000  Biso   1.000  N 
  N3       1.0000 0.75000  0.78100  0.03100  Biso   1.000  N 
  N4       1.0000 0.96900  0.25000  0.21900  Biso   1.000  N 
  N5       1.0000 0.71900  0.46900  0.25000  Biso   1.000  N 
  N6       1.0000 0.21900  0.96900  0.25000  Biso   1.000  N 
  N7       1.0000 0.53100  0.75000  0.28100  Biso   1.000  N 
  N8       1.0000 0.25000  0.71900  0.46900  Biso   1.000  N 
  N9       1.0000 0.00000  0.00000  0.50000  Biso   1.000  N 
  N10      1.0000 0.50000  0.50000  0.50000  Biso   1.000  N 
  N11      1.0000 0.75000  0.28100  0.53100  Biso   1.000  N 
  N12      1.0000 0.46900  0.25000  0.71900  Biso   1.000  N 
  N13      1.0000 0.78100  0.03100  0.75000  Biso   1.000  N 
  N14      1.0000 0.28100  0.53100  0.75000  Biso   1.000  N 
  N15      1.0000 0.03100  0.75000  0.78100  Biso   1.000  N 
  N16      1.0000 0.25000  0.21900  0.96900  Biso   1.000  N 
