data_image0
_cell_length_a       5.524
_cell_length_b       9.1559
_cell_length_c       9.1559
_cell_angle_alpha    95.2212
_cell_angle_beta     107.558
_cell_angle_gamma    72.4425

_symmetry_space_group_name_H-M    "P 1"
_symmetry_int_tables_number       1

loop_
  _symmetry_equiv_pos_as_xyz
  'x, y, z'

loop_
  _atom_site_label
  _atom_site_occupancy
  _atom_site_fract_x
  _atom_site_fract_y
  _atom_site_fract_z
  _atom_site_thermal_displace_type
  _atom_site_B_iso_or_equiv
  _atom_site_type_symbol
  F1       1.0000 0.73200  0.64900  0.09440  Biso   1.000  F 
  F2       1.0000 0.99100  0.14000  0.09740  Biso   1.000  F 
  F3       1.0000 0.46400  0.14900  0.10700  Biso   1.000  F 
  F4       1.0000 0.21000  0.65500  0.10900  Biso   1.000  F 
  F5       1.0000 0.63000  0.40300  0.14000  Biso   1.000  F 
  F6       1.0000 0.11200  0.39300  0.14900  Biso   1.000  F 
  F7       1.0000 0.86300  0.90600  0.14900  Biso   1.000  F 
  F8       1.0000 0.40000  0.89100  0.15500  Biso   1.000  F 
  F9       1.0000 0.63600  0.60900  0.34500  Biso   1.000  F 
  F10      1.0000 0.12000  0.59400  0.35100  Biso   1.000  F 
  F11      1.0000 0.85700  0.10700  0.35100  Biso   1.000  F 
  F12      1.0000 0.39300  0.09740  0.36000  Biso   1.000  F 
  F13      1.0000 0.25500  0.84500  0.39100  Biso   1.000  F 
  F14      1.0000 0.00556  0.35100  0.39300  Biso   1.000  F 
  F15      1.0000 0.53300  0.36000  0.40300  Biso   1.000  F 
  F16      1.0000 0.78600  0.85100  0.40600  Biso   1.000  F 
  F17      1.0000 0.21400  0.14900  0.59400  Biso   1.000  F 
  F18      1.0000 0.46700  0.64000  0.59700  Biso   1.000  F 
  F19      1.0000 0.99400  0.64900  0.60700  Biso   1.000  F 
  F20      1.0000 0.74500  0.15500  0.60900  Biso   1.000  F 
  F21      1.0000 0.60700  0.90300  0.64000  Biso   1.000  F 
  F22      1.0000 0.14300  0.89300  0.64900  Biso   1.000  F 
  F23      1.0000 0.88000  0.40600  0.64900  Biso   1.000  F 
  F24      1.0000 0.36400  0.39100  0.65500  Biso   1.000  F 
  F25      1.0000 0.60000  0.10900  0.84500  Biso   1.000  F 
  F26      1.0000 0.13700  0.09440  0.85100  Biso   1.000  F 
  F27      1.0000 0.88800  0.60700  0.85100  Biso   1.000  F 
  F28      1.0000 0.37000  0.59700  0.86000  Biso   1.000  F 
  F29      1.0000 0.79000  0.34500  0.89100  Biso   1.000  F 
  F30      1.0000 0.53600  0.85100  0.89300  Biso   1.000  F 
  F31      1.0000 0.00944  0.86000  0.90300  Biso   1.000  F 
  F32      1.0000 0.26800  0.35100  0.90600  Biso   1.000  F 
  Mn1      1.0000 0.89900  0.75500  0.00151  Biso   1.000  Mn
  Mn2      1.0000 0.84600  0.50200  0.24500  Biso   1.000  Mn
  Mn3      1.0000 0.60300  0.99800  0.25500  Biso   1.000  Mn
  Mn4      1.0000 0.15300  0.74500  0.49800  Biso   1.000  Mn
  Mn5      1.0000 0.84700  0.25500  0.50200  Biso   1.000  Mn
  Mn6      1.0000 0.39700  0.00151  0.74500  Biso   1.000  Mn
  Mn7      1.0000 0.15400  0.49800  0.75500  Biso   1.000  Mn
  Mn8      1.0000 0.10100  0.24500  0.99800  Biso   1.000  Mn
