data_image0
_cell_length_a       6.20913
_cell_length_b       6.20913
_cell_length_c       6.20913
_cell_angle_alpha    119.987
_cell_angle_beta     90.022
_cell_angle_gamma    119.987

_symmetry_space_group_name_H-M    "P 1"
_symmetry_int_tables_number       1

loop_
  _symmetry_equiv_pos_as_xyz
  'x, y, z'

loop_
  _atom_site_label
  _atom_site_occupancy
  _atom_site_fract_x
  _atom_site_fract_y
  _atom_site_fract_z
  _atom_site_thermal_displace_type
  _atom_site_B_iso_or_equiv
  _atom_site_type_symbol
  Ca1      1.0000 0.00000  0.00000  0.00000  Biso   1.000  Ca
  Ca2      1.0000 0.75000  0.50000  0.25000  Biso   1.000  Ca
  Fe1      1.0000 0.37500  0.75000  0.12500  Biso   1.000  Fe
  Fe2      1.0000 0.37500  0.25000  0.62500  Biso   1.000  Fe
  Fe3      1.0000 0.87500  0.25000  0.62500  Biso   1.000  Fe
  Fe4      1.0000 0.37500  0.75000  0.62500  Biso   1.000  Fe
  O1       1.0000 0.17600  0.78400  0.39200  Biso   1.000  O 
  O2       1.0000 0.60800  0.21600  0.39200  Biso   1.000  O 
  O3       1.0000 0.60800  0.78400  0.39200  Biso   1.000  O 
  O4       1.0000 0.14200  0.28400  0.42600  Biso   1.000  O 
  O5       1.0000 0.60800  0.21600  0.82400  Biso   1.000  O 
  O6       1.0000 0.14200  0.71600  0.85800  Biso   1.000  O 
  O7       1.0000 0.57400  0.71600  0.85800  Biso   1.000  O 
  O8       1.0000 0.14200  0.28400  0.85800  Biso   1.000  O 
