data_image0
_cell_length_a       12.7173
_cell_length_b       12.7173
_cell_length_c       12.7173
_cell_angle_alpha    20.0268
_cell_angle_beta     20.0268
_cell_angle_gamma    20.0268

_symmetry_space_group_name_H-M    "P 1"
_symmetry_int_tables_number       1

loop_
  _symmetry_equiv_pos_as_xyz
  'x, y, z'

loop_
  _atom_site_label
  _atom_site_occupancy
  _atom_site_fract_x
  _atom_site_fract_y
  _atom_site_fract_z
  _atom_site_thermal_displace_type
  _atom_site_B_iso_or_equiv
  _atom_site_type_symbol
  Te1      1.0000 0.41700  0.41700  0.41700  Biso   1.000  Te
  Te2      1.0000 0.58300  0.58300  0.58300  Biso   1.000  Te
  Tl1      1.0000 0.13400  0.13400  0.13400  Biso   1.000  Tl
  Tl2      1.0000 0.30100  0.30100  0.30100  Biso   1.000  Tl
  Tl3      1.0000 0.69900  0.69900  0.69900  Biso   1.000  Tl
  Tl4      1.0000 0.86600  0.86600  0.86600  Biso   1.000  Tl
