data_image0
_cell_length_a       15.0103
_cell_length_b       5.76935
_cell_length_c       5.2232
_cell_angle_alpha    90
_cell_angle_beta     90
_cell_angle_gamma    90

_symmetry_space_group_name_H-M    "P 1"
_symmetry_int_tables_number       1

loop_
  _symmetry_equiv_pos_as_xyz
  'x, y, z'

loop_
  _atom_site_label
  _atom_site_occupancy
  _atom_site_fract_x
  _atom_site_fract_y
  _atom_site_fract_z
  _atom_site_thermal_displace_type
  _atom_site_B_iso_or_equiv
  _atom_site_type_symbol
  Ca1      1.0000 0.50000  0.27700  0.25000  Biso   1.000  Ca
  Ca2      1.0000 0.00000  0.77700  0.25000  Biso   1.000  Ca
  Ca3      1.0000 0.00000  0.22300  0.75000  Biso   1.000  Ca
  Ca4      1.0000 0.50000  0.72300  0.75000  Biso   1.000  Ca
  Nb1      1.0000 0.83600  0.31100  0.20200  Biso   1.000  Nb
  Nb2      1.0000 0.66400  0.81100  0.20200  Biso   1.000  Nb
  Nb3      1.0000 0.16400  0.31100  0.29800  Biso   1.000  Nb
  Nb4      1.0000 0.33600  0.81100  0.29800  Biso   1.000  Nb
  Nb5      1.0000 0.66400  0.18900  0.70200  Biso   1.000  Nb
  Nb6      1.0000 0.83600  0.68900  0.70200  Biso   1.000  Nb
  Nb7      1.0000 0.33600  0.18900  0.79800  Biso   1.000  Nb
  Nb8      1.0000 0.16400  0.68900  0.79800  Biso   1.000  Nb
  O1       1.0000 0.09720  0.43000  0.00789  Biso   1.000  O 
  O2       1.0000 0.40300  0.93000  0.00789  Biso   1.000  O 
  O3       1.0000 0.91300  0.09210  0.09080  Biso   1.000  O 
  O4       1.0000 0.58700  0.59200  0.09080  Biso   1.000  O 
  O5       1.0000 0.25700  0.13500  0.12300  Biso   1.000  O 
  O6       1.0000 0.24300  0.63500  0.12300  Biso   1.000  O 
  O7       1.0000 0.74300  0.13500  0.37700  Biso   1.000  O 
  O8       1.0000 0.75700  0.63500  0.37700  Biso   1.000  O 
  O9       1.0000 0.08740  0.09210  0.40900  Biso   1.000  O 
  O10      1.0000 0.41300  0.59200  0.40900  Biso   1.000  O 
  O11      1.0000 0.90300  0.43000  0.49200  Biso   1.000  O 
  O12      1.0000 0.59700  0.93000  0.49200  Biso   1.000  O 
  O13      1.0000 0.40300  0.07030  0.50800  Biso   1.000  O 
  O14      1.0000 0.09720  0.57000  0.50800  Biso   1.000  O 
  O15      1.0000 0.58700  0.40800  0.59100  Biso   1.000  O 
  O16      1.0000 0.91300  0.90800  0.59100  Biso   1.000  O 
  O17      1.0000 0.24300  0.36500  0.62300  Biso   1.000  O 
  O18      1.0000 0.25700  0.86500  0.62300  Biso   1.000  O 
  O19      1.0000 0.75700  0.36500  0.87700  Biso   1.000  O 
  O20      1.0000 0.74300  0.86500  0.87700  Biso   1.000  O 
  O21      1.0000 0.41300  0.40800  0.90900  Biso   1.000  O 
  O22      1.0000 0.08740  0.90800  0.90900  Biso   1.000  O 
  O23      1.0000 0.59700  0.07030  0.99200  Biso   1.000  O 
  O24      1.0000 0.90300  0.57000  0.99200  Biso   1.000  O 
