data_image0
_cell_length_a       3.9481
_cell_length_b       4.27186
_cell_length_c       7.1698
_cell_angle_alpha    101.307
_cell_angle_beta     105.982
_cell_angle_gamma    62.4769

_symmetry_space_group_name_H-M    "P 1"
_symmetry_int_tables_number       1

loop_
  _symmetry_equiv_pos_as_xyz
  'x, y, z'

loop_
  _atom_site_label
  _atom_site_occupancy
  _atom_site_fract_x
  _atom_site_fract_y
  _atom_site_fract_z
  _atom_site_thermal_displace_type
  _atom_site_B_iso_or_equiv
  _atom_site_type_symbol
  Cr1      1.0000 0.00000  0.00000  0.00000  Biso   1.000  Cr
  I1       1.0000 0.73200  0.77300  0.23600  Biso   1.000  I 
  I2       1.0000 0.26800  0.22700  0.76400  Biso   1.000  I 
