data_image0
_cell_length_a       4.81034
_cell_length_b       4.81033
_cell_length_c       6.61904
_cell_angle_alpha    90
_cell_angle_beta     90
_cell_angle_gamma    120

_symmetry_space_group_name_H-M    "P 1"
_symmetry_int_tables_number       1

loop_
  _symmetry_equiv_pos_as_xyz
  'x, y, z'

loop_
  _atom_site_label
  _atom_site_occupancy
  _atom_site_fract_x
  _atom_site_fract_y
  _atom_site_fract_z
  _atom_site_thermal_displace_type
  _atom_site_B_iso_or_equiv
  _atom_site_type_symbol
  Nb1      1.0000 0.00000  0.50000  0.16700  Biso   1.000  Nb
  Nb2      1.0000 0.50000  0.00000  0.50000  Biso   1.000  Nb
  Nb3      1.0000 0.50000  0.50000  0.83300  Biso   1.000  Nb
  Si1      1.0000 0.31900  0.15900  0.16700  Biso   1.000  Si
  Si2      1.0000 0.68100  0.84100  0.16700  Biso   1.000  Si
  Si3      1.0000 0.15900  0.31900  0.50000  Biso   1.000  Si
  Si4      1.0000 0.84100  0.68100  0.50000  Biso   1.000  Si
  Si5      1.0000 0.84100  0.15900  0.83300  Biso   1.000  Si
  Si6      1.0000 0.15900  0.84100  0.83300  Biso   1.000  Si
