data_image0
_cell_length_a       4.0752
_cell_length_b       4.05278
_cell_length_c       7.15988
_cell_angle_alpha    90
_cell_angle_beta     90
_cell_angle_gamma    119.818

_symmetry_space_group_name_H-M    "P 1"
_symmetry_int_tables_number       1

loop_
  _symmetry_equiv_pos_as_xyz
  'x, y, z'

loop_
  _atom_site_label
  _atom_site_occupancy
  _atom_site_fract_x
  _atom_site_fract_y
  _atom_site_fract_z
  _atom_site_thermal_displace_type
  _atom_site_B_iso_or_equiv
  _atom_site_type_symbol
  F1       1.0000 0.66700  0.33300  0.08050  Biso   1.000  F 
  F2       1.0000 0.00019  0.00009  0.25000  Biso   1.000  F 
  F3       1.0000 0.66700  0.33300  0.41900  Biso   1.000  F 
  F4       1.0000 0.33300  0.66700  0.58100  Biso   1.000  F 
  F5       1.0000 0.00000  0.00000  0.75000  Biso   1.000  F 
  F6       1.0000 0.33300  0.66700  0.91900  Biso   1.000  F 
  Np1      1.0000 0.33500  0.66700  0.25000  Biso   1.000  Np
  Np2      1.0000 0.66500  0.33300  0.75000  Biso   1.000  Np
