data_image0
_cell_length_a       6.18358
_cell_length_b       3.74705
_cell_length_c       7.13646
_cell_angle_alpha    90
_cell_angle_beta     90
_cell_angle_gamma    90

_symmetry_space_group_name_H-M    "P 1"
_symmetry_int_tables_number       1

loop_
  _symmetry_equiv_pos_as_xyz
  'x, y, z'

loop_
  _atom_site_label
  _atom_site_occupancy
  _atom_site_fract_x
  _atom_site_fract_y
  _atom_site_fract_z
  _atom_site_thermal_displace_type
  _atom_site_B_iso_or_equiv
  _atom_site_type_symbol
  Li1      1.0000 0.35700  0.75000  0.06990  Biso   1.000  Li
  Li2      1.0000 0.02650  0.25000  0.17100  Biso   1.000  Li
  Li3      1.0000 0.52700  0.25000  0.32900  Biso   1.000  Li
  Li4      1.0000 0.85700  0.75000  0.43000  Biso   1.000  Li
  Li5      1.0000 0.14300  0.25000  0.57000  Biso   1.000  Li
  Li6      1.0000 0.47300  0.75000  0.67100  Biso   1.000  Li
  Li7      1.0000 0.97300  0.75000  0.82900  Biso   1.000  Li
  Li8      1.0000 0.64300  0.25000  0.93000  Biso   1.000  Li
  S1       1.0000 0.74500  0.75000  0.11300  Biso   1.000  S 
  S2       1.0000 0.24500  0.75000  0.38700  Biso   1.000  S 
  S3       1.0000 0.75500  0.25000  0.61300  Biso   1.000  S 
  S4       1.0000 0.25500  0.25000  0.88700  Biso   1.000  S 
