data_image0
_cell_length_a       8.34841
_cell_length_b       8.34841
_cell_length_c       9.03733
_cell_angle_alpha    117.509
_cell_angle_beta     62.4912
_cell_angle_gamma    120

_symmetry_space_group_name_H-M    "P 1"
_symmetry_int_tables_number       1

loop_
  _symmetry_equiv_pos_as_xyz
  'x, y, z'

loop_
  _atom_site_label
  _atom_site_occupancy
  _atom_site_fract_x
  _atom_site_fract_y
  _atom_site_fract_z
  _atom_site_thermal_displace_type
  _atom_site_B_iso_or_equiv
  _atom_site_type_symbol
  In1      1.0000 0.65200  0.34800  0.04390  Biso   1.000  In
  In2      1.0000 0.85700  0.14300  0.43000  Biso   1.000  In
  In3      1.0000 0.14300  0.85700  0.57000  Biso   1.000  In
  In4      1.0000 0.34800  0.65200  0.95600  Biso   1.000  In
  O1       1.0000 0.14800  0.46600  0.11800  Biso   1.000  O 
  O2       1.0000 0.53400  0.80100  0.11800  Biso   1.000  O 
  O3       1.0000 0.19900  0.85200  0.11800  Biso   1.000  O 
  O4       1.0000 0.46000  0.15800  0.20000  Biso   1.000  O 
  O5       1.0000 0.84200  0.50200  0.20000  Biso   1.000  O 
  O6       1.0000 0.49800  0.54000  0.20000  Biso   1.000  O 
  O7       1.0000 0.14300  0.15000  0.25900  Biso   1.000  O 
  O8       1.0000 0.85000  0.25200  0.25900  Biso   1.000  O 
  O9       1.0000 0.74800  0.85700  0.25900  Biso   1.000  O 
  O10      1.0000 0.19300  0.02680  0.42300  Biso   1.000  O 
  O11      1.0000 0.97300  0.58900  0.42300  Biso   1.000  O 
  O12      1.0000 0.41100  0.80700  0.42300  Biso   1.000  O 
  O13      1.0000 0.58900  0.19300  0.57700  Biso   1.000  O 
  O14      1.0000 0.02680  0.41100  0.57700  Biso   1.000  O 
  O15      1.0000 0.80700  0.97300  0.57700  Biso   1.000  O 
  O16      1.0000 0.25200  0.14300  0.74100  Biso   1.000  O 
  O17      1.0000 0.15000  0.74800  0.74100  Biso   1.000  O 
  O18      1.0000 0.85700  0.85000  0.74100  Biso   1.000  O 
  O19      1.0000 0.50200  0.46000  0.80000  Biso   1.000  O 
  O20      1.0000 0.15800  0.49800  0.80000  Biso   1.000  O 
  O21      1.0000 0.54000  0.84200  0.80000  Biso   1.000  O 
  O22      1.0000 0.80100  0.14800  0.88200  Biso   1.000  O 
  O23      1.0000 0.46600  0.19900  0.88200  Biso   1.000  O 
  O24      1.0000 0.85200  0.53400  0.88200  Biso   1.000  O 
  S1       1.0000 0.24900  0.04530  0.24900  Biso   1.000  S 
  S2       1.0000 0.95500  0.45300  0.24900  Biso   1.000  S 
  S3       1.0000 0.54700  0.75100  0.24900  Biso   1.000  S 
  S4       1.0000 0.45300  0.24900  0.75100  Biso   1.000  S 
  S5       1.0000 0.04530  0.54700  0.75100  Biso   1.000  S 
  S6       1.0000 0.75100  0.95500  0.75100  Biso   1.000  S 
