data_image0
_cell_length_a       4.11013
_cell_length_b       4.11013
_cell_length_c       11.3801
_cell_angle_alpha    90
_cell_angle_beta     90
_cell_angle_gamma    89.6591

_symmetry_space_group_name_H-M    "P 1"
_symmetry_int_tables_number       1

loop_
  _symmetry_equiv_pos_as_xyz
  'x, y, z'

loop_
  _atom_site_label
  _atom_site_occupancy
  _atom_site_fract_x
  _atom_site_fract_y
  _atom_site_fract_z
  _atom_site_thermal_displace_type
  _atom_site_B_iso_or_equiv
  _atom_site_type_symbol
  S1       1.0000 0.77400  0.27400  0.09440  Biso   1.000  S 
  S2       1.0000 0.27400  0.77400  0.90600  Biso   1.000  S 
  Sn1      1.0000 0.25000  0.75000  0.13200  Biso   1.000  Sn
  Sn2      1.0000 0.75000  0.25000  0.86800  Biso   1.000  Sn
