data_image0
_cell_length_a       7.19894
_cell_length_b       7.61185
_cell_length_c       7.88783
_cell_angle_alpha    113.526
_cell_angle_beta     104.275
_cell_angle_gamma    103.832

_symmetry_space_group_name_H-M    "P 1"
_symmetry_int_tables_number       1

loop_
  _symmetry_equiv_pos_as_xyz
  'x, y, z'

loop_
  _atom_site_label
  _atom_site_occupancy
  _atom_site_fract_x
  _atom_site_fract_y
  _atom_site_fract_z
  _atom_site_thermal_displace_type
  _atom_site_B_iso_or_equiv
  _atom_site_type_symbol
  Al1      1.0000 0.21600  0.82100  0.19300  Biso   1.000  Al
  Al2      1.0000 0.78400  0.17900  0.80700  Biso   1.000  Al
  K1       1.0000 0.13500  0.28200  0.26800  Biso   1.000  K 
  K2       1.0000 0.86500  0.71800  0.73200  Biso   1.000  K 
  O1       1.0000 0.79000  0.33300  0.04300  Biso   1.000  O 
  O2       1.0000 0.41400  0.30300  0.05280  Biso   1.000  O 
  O3       1.0000 0.98300  0.86000  0.14200  Biso   1.000  O 
  O4       1.0000 0.73300  0.67000  0.27600  Biso   1.000  O 
  O5       1.0000 0.40400  0.07140  0.31400  Biso   1.000  O 
  O6       1.0000 0.76700  0.03860  0.31400  Biso   1.000  O 
  O7       1.0000 0.25100  0.70700  0.34400  Biso   1.000  O 
  O8       1.0000 0.71900  0.38500  0.37300  Biso   1.000  O 
  O9       1.0000 0.28100  0.61500  0.62700  Biso   1.000  O 
  O10      1.0000 0.74900  0.29300  0.65600  Biso   1.000  O 
  O11      1.0000 0.23300  0.96100  0.68600  Biso   1.000  O 
  O12      1.0000 0.59600  0.92900  0.68600  Biso   1.000  O 
  O13      1.0000 0.26700  0.33000  0.72400  Biso   1.000  O 
  O14      1.0000 0.01650  0.14000  0.85800  Biso   1.000  O 
  O15      1.0000 0.58600  0.69700  0.94700  Biso   1.000  O 
  O16      1.0000 0.21000  0.66700  0.95700  Biso   1.000  O 
  Si1      1.0000 0.76800  0.81600  0.17200  Biso   1.000  Si
  Si2      1.0000 0.66500  0.41800  0.17700  Biso   1.000  Si
  Si3      1.0000 0.65100  0.18900  0.41500  Biso   1.000  Si
  Si4      1.0000 0.34900  0.81100  0.58500  Biso   1.000  Si
  Si5      1.0000 0.33500  0.58200  0.82300  Biso   1.000  Si
  Si6      1.0000 0.23200  0.18400  0.82800  Biso   1.000  Si
