data_image0
_cell_length_a       9.54936
_cell_length_b       5.89127
_cell_length_c       11.6228
_cell_angle_alpha    90
_cell_angle_beta     90
_cell_angle_gamma    90

_symmetry_space_group_name_H-M    "P 1"
_symmetry_int_tables_number       1

loop_
  _symmetry_equiv_pos_as_xyz
  'x, y, z'

loop_
  _atom_site_label
  _atom_site_occupancy
  _atom_site_fract_x
  _atom_site_fract_y
  _atom_site_fract_z
  _atom_site_thermal_displace_type
  _atom_site_B_iso_or_equiv
  _atom_site_type_symbol
  Cs1      1.0000 0.35100  0.75000  0.07350  Biso   1.000  Cs
  Cs2      1.0000 0.02520  0.25000  0.17400  Biso   1.000  Cs
  Cs3      1.0000 0.52500  0.25000  0.32600  Biso   1.000  Cs
  Cs4      1.0000 0.85100  0.75000  0.42700  Biso   1.000  Cs
  Cs5      1.0000 0.14900  0.25000  0.57300  Biso   1.000  Cs
  Cs6      1.0000 0.47500  0.75000  0.67400  Biso   1.000  Cs
  Cs7      1.0000 0.97500  0.75000  0.82600  Biso   1.000  Cs
  Cs8      1.0000 0.64900  0.25000  0.92700  Biso   1.000  Cs
  Te1      1.0000 0.75300  0.75000  0.11200  Biso   1.000  Te
  Te2      1.0000 0.25300  0.75000  0.38800  Biso   1.000  Te
  Te3      1.0000 0.74700  0.25000  0.61200  Biso   1.000  Te
  Te4      1.0000 0.24700  0.25000  0.88800  Biso   1.000  Te
