data_image0
_cell_length_a       7.1405
_cell_length_b       7.1405
_cell_length_c       6.42066
_cell_angle_alpha    90
_cell_angle_beta     90
_cell_angle_gamma    120

_symmetry_space_group_name_H-M    "P 1"
_symmetry_int_tables_number       1

loop_
  _symmetry_equiv_pos_as_xyz
  'x, y, z'

loop_
  _atom_site_label
  _atom_site_occupancy
  _atom_site_fract_x
  _atom_site_fract_y
  _atom_site_fract_z
  _atom_site_thermal_displace_type
  _atom_site_B_iso_or_equiv
  _atom_site_type_symbol
  Ce1      1.0000 0.00000  0.50000  0.16700  Biso   1.000  Ce
  Ce2      1.0000 0.50000  0.50000  0.50000  Biso   1.000  Ce
  Ce3      1.0000 0.50000  0.00000  0.83300  Biso   1.000  Ce
  O1       1.0000 0.30800  0.44400  0.14800  Biso   1.000  O 
  O2       1.0000 0.69200  0.55600  0.14800  Biso   1.000  O 
  O3       1.0000 0.69200  0.13500  0.18600  Biso   1.000  O 
  O4       1.0000 0.30800  0.86500  0.18600  Biso   1.000  O 
  O5       1.0000 0.44400  0.13500  0.48100  Biso   1.000  O 
  O6       1.0000 0.55600  0.86500  0.48100  Biso   1.000  O 
  O7       1.0000 0.13500  0.44400  0.51900  Biso   1.000  O 
  O8       1.0000 0.86500  0.55600  0.51900  Biso   1.000  O 
  O9       1.0000 0.86500  0.30800  0.81400  Biso   1.000  O 
  O10      1.0000 0.13500  0.69200  0.81400  Biso   1.000  O 
  O11      1.0000 0.44400  0.30800  0.85200  Biso   1.000  O 
  O12      1.0000 0.55600  0.69200  0.85200  Biso   1.000  O 
  P1       1.0000 0.50000  0.50000  0.00000  Biso   1.000  P 
  P2       1.0000 0.50000  0.00000  0.33300  Biso   1.000  P 
  P3       1.0000 0.00000  0.50000  0.66700  Biso   1.000  P 
