data_image0
_cell_length_a       5.78986
_cell_length_b       5.78986
_cell_length_c       5.78986
_cell_angle_alpha    110.796
_cell_angle_beta     105.815
_cell_angle_gamma    111.865

_symmetry_space_group_name_H-M    "P 1"
_symmetry_int_tables_number       1

loop_
  _symmetry_equiv_pos_as_xyz
  'x, y, z'

loop_
  _atom_site_label
  _atom_site_occupancy
  _atom_site_fract_x
  _atom_site_fract_y
  _atom_site_fract_z
  _atom_site_thermal_displace_type
  _atom_site_B_iso_or_equiv
  _atom_site_type_symbol
  Mg1      1.0000 0.50000  0.50000  0.00000  Biso   1.000  Mg
  Mg2      1.0000 0.00000  0.50000  0.50000  Biso   1.000  Mg
  O1       1.0000 0.01540  0.19700  0.21300  Biso   1.000  O 
  O2       1.0000 0.55100  0.28100  0.23000  Biso   1.000  O 
  O3       1.0000 0.94900  0.67800  0.23000  Biso   1.000  O 
  O4       1.0000 0.51500  0.80300  0.31800  Biso   1.000  O 
  O5       1.0000 0.48500  0.19700  0.68200  Biso   1.000  O 
  O6       1.0000 0.05120  0.32200  0.77000  Biso   1.000  O 
  O7       1.0000 0.44900  0.71900  0.77000  Biso   1.000  O 
  O8       1.0000 0.98500  0.80300  0.78700  Biso   1.000  O 
  U1       1.0000 0.25000  0.98000  0.23000  Biso   1.000  U 
  U2       1.0000 0.75000  0.02040  0.77000  Biso   1.000  U 
