data_image0
_cell_length_a       6.60451
_cell_length_b       6.60451
_cell_length_c       6.60451
_cell_angle_alpha    60
_cell_angle_beta     60
_cell_angle_gamma    60

_symmetry_space_group_name_H-M    "P 1"
_symmetry_int_tables_number       1

loop_
  _symmetry_equiv_pos_as_xyz
  'x, y, z'

loop_
  _atom_site_label
  _atom_site_occupancy
  _atom_site_fract_x
  _atom_site_fract_y
  _atom_site_fract_z
  _atom_site_thermal_displace_type
  _atom_site_B_iso_or_equiv
  _atom_site_type_symbol
  Ag1      1.0000 0.50000  0.50000  0.00000  Biso   1.000  Ag
  Ag2      1.0000 0.50000  0.00000  0.50000  Biso   1.000  Ag
  Ag3      1.0000 1.00000  0.50000  0.50000  Biso   1.000  Ag
  Ag4      1.0000 0.50000  0.50000  0.50000  Biso   1.000  Ag
  O1       1.0000 0.76400  0.76400  0.20900  Biso   1.000  O 
  O2       1.0000 0.79100  0.23600  0.23600  Biso   1.000  O 
  O3       1.0000 0.23600  0.79100  0.23600  Biso   1.000  O 
  O4       1.0000 0.23600  0.23600  0.23600  Biso   1.000  O 
  O5       1.0000 0.76400  0.76400  0.76400  Biso   1.000  O 
  O6       1.0000 0.76400  0.20900  0.76400  Biso   1.000  O 
  O7       1.0000 0.20900  0.76400  0.76400  Biso   1.000  O 
  O8       1.0000 0.23600  0.23600  0.79100  Biso   1.000  O 
  W1       1.0000 0.12500  0.12500  0.12500  Biso   1.000  W 
  W2       1.0000 0.87500  0.87500  0.87500  Biso   1.000  W 
