data_image0
_cell_length_a       4.93293
_cell_length_b       7.27822
_cell_length_c       7.27822
_cell_angle_alpha    96.5945
_cell_angle_beta     109.809
_cell_angle_gamma    70.1911

_symmetry_space_group_name_H-M    "P 1"
_symmetry_int_tables_number       1

loop_
  _symmetry_equiv_pos_as_xyz
  'x, y, z'

loop_
  _atom_site_label
  _atom_site_occupancy
  _atom_site_fract_x
  _atom_site_fract_y
  _atom_site_fract_z
  _atom_site_thermal_displace_type
  _atom_site_B_iso_or_equiv
  _atom_site_type_symbol
  Mo1      1.0000 0.72400  0.69900  0.14800  Biso   1.000  Mo
  Mo2      1.0000 0.92400  0.30100  0.14800  Biso   1.000  Mo
  Mo3      1.0000 0.22400  0.85200  0.30100  Biso   1.000  Mo
  Mo4      1.0000 0.57600  0.14800  0.30100  Biso   1.000  Mo
  Mo5      1.0000 0.25000  0.50000  0.50000  Biso   1.000  Mo
  Mo6      1.0000 0.75000  0.50000  0.50000  Biso   1.000  Mo
  Mo7      1.0000 0.77600  0.14800  0.69900  Biso   1.000  Mo
  Mo8      1.0000 0.42400  0.85200  0.69900  Biso   1.000  Mo
  Mo9      1.0000 0.07630  0.69900  0.85200  Biso   1.000  Mo
  Mo10     1.0000 0.27600  0.30100  0.85200  Biso   1.000  Mo
  Si1      1.0000 0.25000  0.00000  0.00000  Biso   1.000  Si
  Si2      1.0000 0.75000  0.00000  0.00000  Biso   1.000  Si
  Si3      1.0000 0.33200  0.50000  0.16500  Biso   1.000  Si
  Si4      1.0000 0.16800  0.16500  0.50000  Biso   1.000  Si
  Si5      1.0000 0.83200  0.83500  0.50000  Biso   1.000  Si
  Si6      1.0000 0.66800  0.50000  0.83500  Biso   1.000  Si
