data_image0
_cell_length_a       4.50461
_cell_length_b       4.67304
_cell_length_c       6.60192
_cell_angle_alpha    90
_cell_angle_beta     70.0525
_cell_angle_gamma    90

_symmetry_space_group_name_H-M    "P 1"
_symmetry_int_tables_number       1

loop_
  _symmetry_equiv_pos_as_xyz
  'x, y, z'

loop_
  _atom_site_label
  _atom_site_occupancy
  _atom_site_fract_x
  _atom_site_fract_y
  _atom_site_fract_z
  _atom_site_thermal_displace_type
  _atom_site_B_iso_or_equiv
  _atom_site_type_symbol
  Br1      1.0000 0.85100  0.25000  0.29700  Biso   1.000  Br
  Br2      1.0000 0.14900  0.75000  0.70300  Biso   1.000  Br
  In1      1.0000 0.39400  0.75000  0.21200  Biso   1.000  In
  In2      1.0000 0.60600  0.25000  0.78800  Biso   1.000  In
