data_image0
_cell_length_a       7.74372
_cell_length_b       10.338
_cell_length_c       5.921
_cell_angle_alpha    90
_cell_angle_beta     90
_cell_angle_gamma    90

_symmetry_space_group_name_H-M    "P 1"
_symmetry_int_tables_number       1

loop_
  _symmetry_equiv_pos_as_xyz
  'x, y, z'

loop_
  _atom_site_label
  _atom_site_occupancy
  _atom_site_fract_x
  _atom_site_fract_y
  _atom_site_fract_z
  _atom_site_thermal_displace_type
  _atom_site_B_iso_or_equiv
  _atom_site_type_symbol
  O1       1.0000 0.80400  0.14700  0.04420  Biso   1.000  O 
  O2       1.0000 0.30400  0.35300  0.04420  Biso   1.000  O 
  O3       1.0000 0.54500  0.08600  0.25000  Biso   1.000  O 
  O4       1.0000 0.04450  0.41400  0.25000  Biso   1.000  O 
  O5       1.0000 0.29900  0.55600  0.25000  Biso   1.000  O 
  O6       1.0000 0.79900  0.94400  0.25000  Biso   1.000  O 
  O7       1.0000 0.80400  0.14700  0.45600  Biso   1.000  O 
  O8       1.0000 0.30400  0.35300  0.45600  Biso   1.000  O 
  O9       1.0000 0.69600  0.64700  0.54400  Biso   1.000  O 
  O10      1.0000 0.19600  0.85300  0.54400  Biso   1.000  O 
  O11      1.0000 0.20100  0.05610  0.75000  Biso   1.000  O 
  O12      1.0000 0.70100  0.44400  0.75000  Biso   1.000  O 
  O13      1.0000 0.95500  0.58600  0.75000  Biso   1.000  O 
  O14      1.0000 0.45500  0.91400  0.75000  Biso   1.000  O 
  O15      1.0000 0.69600  0.64700  0.95600  Biso   1.000  O 
  O16      1.0000 0.19600  0.85300  0.95600  Biso   1.000  O 
  Rb1      1.0000 0.17500  0.09040  0.25000  Biso   1.000  Rb
  Rb2      1.0000 0.67500  0.41000  0.25000  Biso   1.000  Rb
  Rb3      1.0000 0.98800  0.70200  0.25000  Biso   1.000  Rb
  Rb4      1.0000 0.48800  0.79800  0.25000  Biso   1.000  Rb
  Rb5      1.0000 0.51200  0.20200  0.75000  Biso   1.000  Rb
  Rb6      1.0000 0.01190  0.29800  0.75000  Biso   1.000  Rb
  Rb7      1.0000 0.32500  0.59000  0.75000  Biso   1.000  Rb
  Rb8      1.0000 0.82500  0.91000  0.75000  Biso   1.000  Rb
  S1       1.0000 0.73700  0.08100  0.25000  Biso   1.000  S 
  S2       1.0000 0.23700  0.41900  0.25000  Biso   1.000  S 
  S3       1.0000 0.76300  0.58100  0.75000  Biso   1.000  S 
  S4       1.0000 0.26300  0.91900  0.75000  Biso   1.000  S 
