data_image0
_cell_length_a       8.05674
_cell_length_b       8.05681
_cell_length_c       3.08702
_cell_angle_alpha    90
_cell_angle_beta     90
_cell_angle_gamma    120.002

_symmetry_space_group_name_H-M    "P 1"
_symmetry_int_tables_number       1

loop_
  _symmetry_equiv_pos_as_xyz
  'x, y, z'

loop_
  _atom_site_label
  _atom_site_occupancy
  _atom_site_fract_x
  _atom_site_fract_y
  _atom_site_fract_z
  _atom_site_thermal_displace_type
  _atom_site_B_iso_or_equiv
  _atom_site_type_symbol
  Ge1      1.0000 0.23500  0.40600  0.25000  Biso   1.000  Ge
  Ge2      1.0000 0.17100  0.76500  0.25000  Biso   1.000  Ge
  Ge3      1.0000 0.59400  0.82900  0.25000  Biso   1.000  Ge
  Ge4      1.0000 0.40600  0.17100  0.75000  Biso   1.000  Ge
  Ge5      1.0000 0.82900  0.23500  0.75000  Biso   1.000  Ge
  Ge6      1.0000 0.76500  0.59400  0.75000  Biso   1.000  Ge
  N1       1.0000 0.33100  0.02770  0.25000  Biso   1.000  N 
  N2       1.0000 0.97200  0.30300  0.25000  Biso   1.000  N 
  N3       1.0000 0.33300  0.66700  0.25000  Biso   1.000  N 
  N4       1.0000 0.69700  0.66900  0.25000  Biso   1.000  N 
  N5       1.0000 0.30300  0.33100  0.75000  Biso   1.000  N 
  N6       1.0000 0.66700  0.33300  0.75000  Biso   1.000  N 
  N7       1.0000 0.02770  0.69700  0.75000  Biso   1.000  N 
  N8       1.0000 0.66900  0.97200  0.75000  Biso   1.000  N 
