data_image0
_cell_length_a       4.43516
_cell_length_b       4.43516
_cell_length_c       7.96593
_cell_angle_alpha    106.164
_cell_angle_beta     106.164
_cell_angle_gamma    90

_symmetry_space_group_name_H-M    "P 1"
_symmetry_int_tables_number       1

loop_
  _symmetry_equiv_pos_as_xyz
  'x, y, z'

loop_
  _atom_site_label
  _atom_site_occupancy
  _atom_site_fract_x
  _atom_site_fract_y
  _atom_site_fract_z
  _atom_site_thermal_displace_type
  _atom_site_B_iso_or_equiv
  _atom_site_type_symbol
  Cs1      1.0000 0.65600  0.65600  0.31200  Biso   1.000  Cs
  Cs2      1.0000 0.34400  0.34400  0.68800  Biso   1.000  Cs
  O1       1.0000 0.50000  0.00000  0.00000  Biso   1.000  O 
  O2       1.0000 0.00000  0.50000  0.00000  Biso   1.000  O 
  O3       1.0000 0.13200  0.13200  0.26400  Biso   1.000  O 
  O4       1.0000 0.86800  0.86800  0.73600  Biso   1.000  O 
  U1       1.0000 0.00000  0.00000  0.00000  Biso   1.000  U 
