data_image0
_cell_length_a       5.19266
_cell_length_b       5.19266
_cell_length_c       8.86876
_cell_angle_alpha    89.9997
_cell_angle_beta     90.0003
_cell_angle_gamma    120.003

_symmetry_space_group_name_H-M    "P 1"
_symmetry_int_tables_number       1

loop_
  _symmetry_equiv_pos_as_xyz
  'x, y, z'

loop_
  _atom_site_label
  _atom_site_occupancy
  _atom_site_fract_x
  _atom_site_fract_y
  _atom_site_fract_z
  _atom_site_thermal_displace_type
  _atom_site_B_iso_or_equiv
  _atom_site_type_symbol
  Al1      1.0000 0.33300  0.66700  0.05330  Biso   1.000  Al
  Al2      1.0000 0.33300  0.66700  0.44700  Biso   1.000  Al
  Al3      1.0000 0.66700  0.33300  0.55300  Biso   1.000  Al
  Al4      1.0000 0.66700  0.33300  0.94700  Biso   1.000  Al
  Ba1      1.0000 0.00000  0.00000  0.25000  Biso   1.000  Ba
  Ba2      1.0000 0.00000  0.00000  0.75000  Biso   1.000  Ba
  O1       1.0000 0.00000  0.65100  0.00000  Biso   1.000  O 
  O2       1.0000 0.35000  0.34900  0.00000  Biso   1.000  O 
  O3       1.0000 0.65100  1.00000  0.00001  Biso   1.000  O 
  O4       1.0000 0.33300  0.66700  0.25000  Biso   1.000  O 
  O5       1.0000 0.34900  0.00000  0.50000  Biso   1.000  O 
  O6       1.0000 0.65000  0.65000  0.50000  Biso   1.000  O 
  O7       1.0000 0.00000  0.34900  0.50000  Biso   1.000  O 
  O8       1.0000 0.66700  0.33300  0.75000  Biso   1.000  O 
