data_image0
_cell_length_a       3.74232
_cell_length_b       5.20733
_cell_length_c       10.068
_cell_angle_alpha    90
_cell_angle_beta     90
_cell_angle_gamma    68.9409

_symmetry_space_group_name_H-M    "P 1"
_symmetry_int_tables_number       1

loop_
  _symmetry_equiv_pos_as_xyz
  'x, y, z'

loop_
  _atom_site_label
  _atom_site_occupancy
  _atom_site_fract_x
  _atom_site_fract_y
  _atom_site_fract_z
  _atom_site_thermal_displace_type
  _atom_site_B_iso_or_equiv
  _atom_site_type_symbol
  Co1      1.0000 0.80800  0.38400  0.25000  Biso   1.000  Co
  Co2      1.0000 0.19200  0.61600  0.75000  Biso   1.000  Co
  O1       1.0000 0.68600  0.62800  0.06000  Biso   1.000  O 
  O2       1.0000 0.95200  0.09520  0.11300  Biso   1.000  O 
  O3       1.0000 0.21500  0.56900  0.25000  Biso   1.000  O 
  O4       1.0000 0.95200  0.09520  0.38700  Biso   1.000  O 
  O5       1.0000 0.68600  0.62800  0.44000  Biso   1.000  O 
  O6       1.0000 0.31400  0.37200  0.56000  Biso   1.000  O 
  O7       1.0000 0.04760  0.90500  0.61300  Biso   1.000  O 
  O8       1.0000 0.78500  0.43100  0.75000  Biso   1.000  O 
  O9       1.0000 0.04760  0.90500  0.88700  Biso   1.000  O 
  O10      1.0000 0.31400  0.37200  0.94000  Biso   1.000  O 
  Ti1      1.0000 0.13500  0.73000  0.06700  Biso   1.000  Ti
  Ti2      1.0000 0.13500  0.73000  0.43300  Biso   1.000  Ti
  Ti3      1.0000 0.86500  0.27000  0.56700  Biso   1.000  Ti
  Ti4      1.0000 0.86500  0.27000  0.93300  Biso   1.000  Ti
