data_image0
_cell_length_a       4.3746
_cell_length_b       4.79988
_cell_length_c       6.26808
_cell_angle_alpha    67.4876
_cell_angle_beta     90
_cell_angle_gamma    90

_symmetry_space_group_name_H-M    "P 1"
_symmetry_int_tables_number       1

loop_
  _symmetry_equiv_pos_as_xyz
  'x, y, z'

loop_
  _atom_site_label
  _atom_site_occupancy
  _atom_site_fract_x
  _atom_site_fract_y
  _atom_site_fract_z
  _atom_site_thermal_displace_type
  _atom_site_B_iso_or_equiv
  _atom_site_type_symbol
  Ca1      1.0000 0.25000  0.86600  0.26700  Biso   1.000  Ca
  Ca2      1.0000 0.75000  0.13400  0.73300  Biso   1.000  Ca
  Sn1      1.0000 0.75000  0.41500  0.17100  Biso   1.000  Sn
  Sn2      1.0000 0.25000  0.58500  0.82900  Biso   1.000  Sn
