data_image0
_cell_length_a       11.5326
_cell_length_b       4.2378
_cell_length_c       3.58488
_cell_angle_alpha    90
_cell_angle_beta     90
_cell_angle_gamma    90

_symmetry_space_group_name_H-M    "P 1"
_symmetry_int_tables_number       1

loop_
  _symmetry_equiv_pos_as_xyz
  'x, y, z'

loop_
  _atom_site_label
  _atom_site_occupancy
  _atom_site_fract_x
  _atom_site_fract_y
  _atom_site_fract_z
  _atom_site_thermal_displace_type
  _atom_site_B_iso_or_equiv
  _atom_site_type_symbol
  O1       1.0000 0.32000  0.00202  0.00000  Biso   1.000  O 
  O2       1.0000 0.68000  0.00202  0.00000  Biso   1.000  O 
  O3       1.0000 0.14500  0.48600  0.00000  Biso   1.000  O 
  O4       1.0000 0.85500  0.48600  0.00000  Biso   1.000  O 
  O5       1.0000 0.00000  0.99400  0.00000  Biso   1.000  O 
  O6       1.0000 0.18000  0.99800  0.50000  Biso   1.000  O 
  O7       1.0000 0.82000  0.99800  0.50000  Biso   1.000  O 
  O8       1.0000 0.50000  0.00603  0.50000  Biso   1.000  O 
  O9       1.0000 0.35500  0.51400  0.50000  Biso   1.000  O 
  O10      1.0000 0.64500  0.51400  0.50000  Biso   1.000  O 
  V1       1.0000 0.14900  0.10700  0.00000  Biso   1.000  V 
  V2       1.0000 0.85100  0.10700  0.00000  Biso   1.000  V 
  V3       1.0000 0.35100  0.89300  0.50000  Biso   1.000  V 
  V4       1.0000 0.64900  0.89300  0.50000  Biso   1.000  V 
