data_image0
_cell_length_a       11.5086
_cell_length_b       10.9385
_cell_length_c       6.19015
_cell_angle_alpha    90
_cell_angle_beta     90
_cell_angle_gamma    90

_symmetry_space_group_name_H-M    "P 1"
_symmetry_int_tables_number       1

loop_
  _symmetry_equiv_pos_as_xyz
  'x, y, z'

loop_
  _atom_site_label
  _atom_site_occupancy
  _atom_site_fract_x
  _atom_site_fract_y
  _atom_site_fract_z
  _atom_site_thermal_displace_type
  _atom_site_B_iso_or_equiv
  _atom_site_type_symbol
  C1       1.0000 0.26900  0.61700  0.06500  Biso   1.000  C 
  C2       1.0000 0.26900  0.88300  0.06500  Biso   1.000  C 
  C3       1.0000 0.22500  0.25000  0.16100  Biso   1.000  C 
  C4       1.0000 0.52100  0.11800  0.19200  Biso   1.000  C 
  C5       1.0000 0.52100  0.38200  0.19200  Biso   1.000  C 
  C6       1.0000 0.47100  0.75000  0.21200  Biso   1.000  C 
  C7       1.0000 0.97100  0.75000  0.28800  Biso   1.000  C 
  C8       1.0000 0.02110  0.11800  0.30800  Biso   1.000  C 
  C9       1.0000 0.02110  0.38200  0.30800  Biso   1.000  C 
  C10      1.0000 0.72500  0.25000  0.33900  Biso   1.000  C 
  C11      1.0000 0.76900  0.61700  0.43500  Biso   1.000  C 
  C12      1.0000 0.76900  0.88300  0.43500  Biso   1.000  C 
  C13      1.0000 0.23100  0.11700  0.56500  Biso   1.000  C 
  C14      1.0000 0.23100  0.38300  0.56500  Biso   1.000  C 
  C15      1.0000 0.27500  0.75000  0.66100  Biso   1.000  C 
  C16      1.0000 0.97900  0.61800  0.69200  Biso   1.000  C 
  C17      1.0000 0.97900  0.88200  0.69200  Biso   1.000  C 
  C18      1.0000 0.02900  0.25000  0.71200  Biso   1.000  C 
  C19      1.0000 0.52900  0.25000  0.78800  Biso   1.000  C 
  C20      1.0000 0.47900  0.61800  0.80800  Biso   1.000  C 
  C21      1.0000 0.47900  0.88200  0.80800  Biso   1.000  C 
  C22      1.0000 0.77500  0.75000  0.83900  Biso   1.000  C 
  C23      1.0000 0.73100  0.11700  0.93500  Biso   1.000  C 
  C24      1.0000 0.73100  0.38300  0.93500  Biso   1.000  C 
  Mo1      1.0000 0.62600  0.25000  0.06470  Biso   1.000  Mo
  Mo2      1.0000 0.12600  0.25000  0.43500  Biso   1.000  Mo
  Mo3      1.0000 0.87400  0.75000  0.56500  Biso   1.000  Mo
  Mo4      1.0000 0.37400  0.75000  0.93500  Biso   1.000  Mo
  O1       1.0000 0.28100  0.25000  0.00587  Biso   1.000  O 
  O2       1.0000 0.02480  0.75000  0.13000  Biso   1.000  O 
  O3       1.0000 0.21200  0.54100  0.13900  Biso   1.000  O 
  O4       1.0000 0.21200  0.95900  0.13900  Biso   1.000  O 
  O5       1.0000 0.96100  0.04280  0.23700  Biso   1.000  O 
  O6       1.0000 0.96100  0.45700  0.23700  Biso   1.000  O 
  O7       1.0000 0.46100  0.04280  0.26300  Biso   1.000  O 
  O8       1.0000 0.46100  0.45700  0.26300  Biso   1.000  O 
  O9       1.0000 0.71200  0.54100  0.36100  Biso   1.000  O 
  O10      1.0000 0.71200  0.95900  0.36100  Biso   1.000  O 
  O11      1.0000 0.52500  0.75000  0.37000  Biso   1.000  O 
  O12      1.0000 0.78100  0.25000  0.49400  Biso   1.000  O 
  O13      1.0000 0.21900  0.75000  0.50600  Biso   1.000  O 
  O14      1.0000 0.47500  0.25000  0.63000  Biso   1.000  O 
  O15      1.0000 0.28800  0.04090  0.63900  Biso   1.000  O 
  O16      1.0000 0.28800  0.45900  0.63900  Biso   1.000  O 
  O17      1.0000 0.53900  0.54300  0.73700  Biso   1.000  O 
  O18      1.0000 0.53900  0.95700  0.73700  Biso   1.000  O 
  O19      1.0000 0.03900  0.54300  0.76300  Biso   1.000  O 
  O20      1.0000 0.03900  0.95700  0.76300  Biso   1.000  O 
  O21      1.0000 0.78800  0.04090  0.86100  Biso   1.000  O 
  O22      1.0000 0.78800  0.45900  0.86100  Biso   1.000  O 
  O23      1.0000 0.97500  0.25000  0.87000  Biso   1.000  O 
  O24      1.0000 0.71900  0.75000  0.99400  Biso   1.000  O 
