data_image0
_cell_length_a       13.8679
_cell_length_b       8.21854
_cell_length_c       8.49608
_cell_angle_alpha    90
_cell_angle_beta     103.276
_cell_angle_gamma    90

_symmetry_space_group_name_H-M    "P 1"
_symmetry_int_tables_number       1

loop_
  _symmetry_equiv_pos_as_xyz
  'x, y, z'

loop_
  _atom_site_label
  _atom_site_occupancy
  _atom_site_fract_x
  _atom_site_fract_y
  _atom_site_fract_z
  _atom_site_thermal_displace_type
  _atom_site_B_iso_or_equiv
  _atom_site_type_symbol
  I1       1.0000 0.15400  0.35600  0.01050  Biso   1.000  I 
  I2       1.0000 0.31100  0.75300  0.02460  Biso   1.000  I 
  I3       1.0000 0.94800  0.08420  0.17400  Biso   1.000  I 
  I4       1.0000 0.39800  0.18600  0.20200  Biso   1.000  I 
  I5       1.0000 0.10200  0.68600  0.29800  Biso   1.000  I 
  I6       1.0000 0.55200  0.58400  0.32600  Biso   1.000  I 
  I7       1.0000 0.18900  0.25300  0.47500  Biso   1.000  I 
  I8       1.0000 0.34600  0.85600  0.49000  Biso   1.000  I 
  I9       1.0000 0.65400  0.14400  0.51000  Biso   1.000  I 
  I10      1.0000 0.81100  0.74700  0.52500  Biso   1.000  I 
  I11      1.0000 0.44800  0.41600  0.67400  Biso   1.000  I 
  I12      1.0000 0.89800  0.31400  0.70200  Biso   1.000  I 
  I13      1.0000 0.60200  0.81400  0.79800  Biso   1.000  I 
  I14      1.0000 0.05150  0.91600  0.82600  Biso   1.000  I 
  I15      1.0000 0.68900  0.24700  0.97500  Biso   1.000  I 
  I16      1.0000 0.84600  0.64400  0.99000  Biso   1.000  I 
  Th1      1.0000 0.18300  0.01260  0.17800  Biso   1.000  Th
  Th2      1.0000 0.31700  0.51300  0.32200  Biso   1.000  Th
  Th3      1.0000 0.68300  0.48700  0.67800  Biso   1.000  Th
  Th4      1.0000 0.81700  0.98700  0.82200  Biso   1.000  Th
