data_image0
_cell_length_a       4.0159
_cell_length_b       4.0159
_cell_length_c       4.0159
_cell_angle_alpha    89.8777
_cell_angle_beta     89.8777
_cell_angle_gamma    89.8777

_symmetry_space_group_name_H-M    "P 1"
_symmetry_int_tables_number       1

loop_
  _symmetry_equiv_pos_as_xyz
  'x, y, z'

loop_
  _atom_site_label
  _atom_site_occupancy
  _atom_site_fract_x
  _atom_site_fract_y
  _atom_site_fract_z
  _atom_site_thermal_displace_type
  _atom_site_B_iso_or_equiv
  _atom_site_type_symbol
  Ba1      1.0000 0.00001  0.00001  0.00001  Biso   1.000  Ba
  O1       1.0000 0.51100  0.51100  0.01560  Biso   1.000  O 
  O2       1.0000 0.51100  0.01560  0.51100  Biso   1.000  O 
  O3       1.0000 0.01560  0.51100  0.51100  Biso   1.000  O 
  Ti1      1.0000 0.49000  0.49000  0.49000  Biso   1.000  Ti
