data_image0
_cell_length_a       3.00824
_cell_length_b       3.00824
_cell_length_c       5.5499
_cell_angle_alpha    74.2752
_cell_angle_beta     90
_cell_angle_gamma    120

_symmetry_space_group_name_H-M    "P 1"
_symmetry_int_tables_number       1

loop_
  _symmetry_equiv_pos_as_xyz
  'x, y, z'

loop_
  _atom_site_label
  _atom_site_occupancy
  _atom_site_fract_x
  _atom_site_fract_y
  _atom_site_fract_z
  _atom_site_thermal_displace_type
  _atom_site_B_iso_or_equiv
  _atom_site_type_symbol
  Cr1      1.0000 0.50000  0.00000  0.50000  Biso   1.000  Cr
  Na1      1.0000 0.00000  0.00000  0.00000  Biso   1.000  Na
  O1       1.0000 0.23400  0.46700  0.29900  Biso   1.000  O 
  O2       1.0000 0.76600  0.53300  0.70100  Biso   1.000  O 
