data_image0
_cell_length_a       8.49045
_cell_length_b       3.81083
_cell_length_c       9.10393
_cell_angle_alpha    90
_cell_angle_beta     101.797
_cell_angle_gamma    90

_symmetry_space_group_name_H-M    "P 1"
_symmetry_int_tables_number       1

loop_
  _symmetry_equiv_pos_as_xyz
  'x, y, z'

loop_
  _atom_site_label
  _atom_site_occupancy
  _atom_site_fract_x
  _atom_site_fract_y
  _atom_site_fract_z
  _atom_site_thermal_displace_type
  _atom_site_B_iso_or_equiv
  _atom_site_type_symbol
  Na1      1.0000 0.49700  0.25000  0.16000  Biso   1.000  Na
  Na2      1.0000 0.31300  0.75000  0.41600  Biso   1.000  Na
  Na3      1.0000 0.68700  0.25000  0.58400  Biso   1.000  Na
  Na4      1.0000 0.50300  0.75000  0.84000  Biso   1.000  Na
  O1       1.0000 0.91300  0.25000  0.04270  Biso   1.000  O 
  O2       1.0000 0.66800  0.75000  0.08890  Biso   1.000  O 
  O3       1.0000 0.22200  0.25000  0.19100  Biso   1.000  O 
  O4       1.0000 0.98400  0.75000  0.24600  Biso   1.000  O 
  O5       1.0000 0.79800  0.25000  0.31500  Biso   1.000  O 
  O6       1.0000 0.54700  0.75000  0.34600  Biso   1.000  O 
  O7       1.0000 0.14900  0.25000  0.46600  Biso   1.000  O 
  O8       1.0000 0.85100  0.75000  0.53400  Biso   1.000  O 
  O9       1.0000 0.45300  0.25000  0.65400  Biso   1.000  O 
  O10      1.0000 0.20200  0.75000  0.68500  Biso   1.000  O 
  O11      1.0000 0.01600  0.25000  0.75400  Biso   1.000  O 
  O12      1.0000 0.77800  0.75000  0.80900  Biso   1.000  O 
  O13      1.0000 0.33200  0.25000  0.91100  Biso   1.000  O 
  O14      1.0000 0.08670  0.75000  0.95700  Biso   1.000  O 
  Ti1      1.0000 0.85200  0.75000  0.01440  Biso   1.000  Ti
  Ti2      1.0000 0.02830  0.25000  0.27900  Biso   1.000  Ti
  Ti3      1.0000 0.74700  0.75000  0.32100  Biso   1.000  Ti
  Ti4      1.0000 0.25300  0.25000  0.67900  Biso   1.000  Ti
  Ti5      1.0000 0.97200  0.75000  0.72100  Biso   1.000  Ti
  Ti6      1.0000 0.14800  0.25000  0.98600  Biso   1.000  Ti
