data_image0
_cell_length_a       7.5529
_cell_length_b       7.5529
_cell_length_c       7.5529
_cell_angle_alpha    90
_cell_angle_beta     90
_cell_angle_gamma    90

_symmetry_space_group_name_H-M    "P 1"
_symmetry_int_tables_number       1

loop_
  _symmetry_equiv_pos_as_xyz
  'x, y, z'

loop_
  _atom_site_label
  _atom_site_occupancy
  _atom_site_fract_x
  _atom_site_fract_y
  _atom_site_fract_z
  _atom_site_thermal_displace_type
  _atom_site_B_iso_or_equiv
  _atom_site_type_symbol
  Ba1      1.0000 0.00000  0.00000  0.00000  Biso   1.000  Ba
  Ba2      1.0000 0.50000  0.00000  0.50000  Biso   1.000  Ba
  Ba3      1.0000 0.50000  0.50000  0.00000  Biso   1.000  Ba
  Ba4      1.0000 0.00000  0.50000  0.50000  Biso   1.000  Ba
  N1       1.0000 0.39300  0.39300  0.39300  Biso   1.000  N 
  N2       1.0000 0.10700  0.60700  0.89300  Biso   1.000  N 
  N3       1.0000 0.89300  0.10700  0.60700  Biso   1.000  N 
  N4       1.0000 0.60700  0.89300  0.10700  Biso   1.000  N 
  N5       1.0000 0.60700  0.60700  0.60700  Biso   1.000  N 
  N6       1.0000 0.89300  0.39300  0.10700  Biso   1.000  N 
  N7       1.0000 0.10700  0.89300  0.39300  Biso   1.000  N 
  N8       1.0000 0.39300  0.10700  0.89300  Biso   1.000  N 
  O1       1.0000 0.32500  0.32400  0.53000  Biso   1.000  O 
  O2       1.0000 0.17500  0.67600  0.02980  Biso   1.000  O 
  O3       1.0000 0.82500  0.17600  0.47000  Biso   1.000  O 
  O4       1.0000 0.67500  0.82400  0.97000  Biso   1.000  O 
  O5       1.0000 0.53000  0.32500  0.32400  Biso   1.000  O 
  O6       1.0000 0.32400  0.53000  0.32500  Biso   1.000  O 
  O7       1.0000 0.97000  0.67500  0.82400  Biso   1.000  O 
  O8       1.0000 0.67600  0.02980  0.17500  Biso   1.000  O 
  O9       1.0000 0.02980  0.17500  0.67600  Biso   1.000  O 
  O10      1.0000 0.17600  0.47000  0.82500  Biso   1.000  O 
  O11      1.0000 0.47000  0.82500  0.17600  Biso   1.000  O 
  O12      1.0000 0.82400  0.97000  0.67500  Biso   1.000  O 
  O13      1.0000 0.67500  0.67600  0.47000  Biso   1.000  O 
  O14      1.0000 0.82500  0.32400  0.97000  Biso   1.000  O 
  O15      1.0000 0.17500  0.82400  0.53000  Biso   1.000  O 
  O16      1.0000 0.32500  0.17600  0.02980  Biso   1.000  O 
  O17      1.0000 0.47000  0.67500  0.67600  Biso   1.000  O 
  O18      1.0000 0.67600  0.47000  0.67500  Biso   1.000  O 
  O19      1.0000 0.02980  0.32500  0.17600  Biso   1.000  O 
  O20      1.0000 0.32400  0.97000  0.82500  Biso   1.000  O 
  O21      1.0000 0.97000  0.82500  0.32400  Biso   1.000  O 
  O22      1.0000 0.82400  0.53000  0.17500  Biso   1.000  O 
  O23      1.0000 0.53000  0.17500  0.82400  Biso   1.000  O 
  O24      1.0000 0.17600  0.02980  0.32500  Biso   1.000  O 
