data_image0
_cell_length_a       8.31916
_cell_length_b       4.99947
_cell_length_c       9.99844
_cell_angle_alpha    90
_cell_angle_beta     90
_cell_angle_gamma    90

_symmetry_space_group_name_H-M    "P 1"
_symmetry_int_tables_number       1

loop_
  _symmetry_equiv_pos_as_xyz
  'x, y, z'

loop_
  _atom_site_label
  _atom_site_occupancy
  _atom_site_fract_x
  _atom_site_fract_y
  _atom_site_fract_z
  _atom_site_thermal_displace_type
  _atom_site_B_iso_or_equiv
  _atom_site_type_symbol
  Ba1      1.0000 0.24700  0.25000  0.11500  Biso   1.000  Ba
  Ba2      1.0000 0.74700  0.25000  0.38500  Biso   1.000  Ba
  Ba3      1.0000 0.25300  0.75000  0.61500  Biso   1.000  Ba
  Ba4      1.0000 0.75300  0.75000  0.88500  Biso   1.000  Ba
  Br1      1.0000 0.64300  0.25000  0.07170  Biso   1.000  Br
  Br2      1.0000 0.97400  0.75000  0.16800  Biso   1.000  Br
  Br3      1.0000 0.47400  0.75000  0.33200  Biso   1.000  Br
  Br4      1.0000 0.14300  0.25000  0.42800  Biso   1.000  Br
  Br5      1.0000 0.85700  0.75000  0.57200  Biso   1.000  Br
  Br6      1.0000 0.52600  0.25000  0.66800  Biso   1.000  Br
  Br7      1.0000 0.02570  0.25000  0.83200  Biso   1.000  Br
  Br8      1.0000 0.35700  0.75000  0.92800  Biso   1.000  Br
