data_image0
_cell_length_a       7.31973
_cell_length_b       7.31973
_cell_length_c       8.3566
_cell_angle_alpha    64.0261
_cell_angle_beta     115.974
_cell_angle_gamma    120

_symmetry_space_group_name_H-M    "P 1"
_symmetry_int_tables_number       1

loop_
  _symmetry_equiv_pos_as_xyz
  'x, y, z'

loop_
  _atom_site_label
  _atom_site_occupancy
  _atom_site_fract_x
  _atom_site_fract_y
  _atom_site_fract_z
  _atom_site_thermal_displace_type
  _atom_site_B_iso_or_equiv
  _atom_site_type_symbol
  As1      1.0000 0.82300  0.17700  0.47000  Biso   1.000  As
  As2      1.0000 0.17700  0.82300  0.53000  Biso   1.000  As
  I1       1.0000 0.77400  0.93800  0.26300  Biso   1.000  I 
  I2       1.0000 0.42800  0.22600  0.26300  Biso   1.000  I 
  I3       1.0000 0.06210  0.57200  0.26300  Biso   1.000  I 
  I4       1.0000 0.93800  0.42800  0.73700  Biso   1.000  I 
  I5       1.0000 0.57200  0.77400  0.73700  Biso   1.000  I 
  I6       1.0000 0.22600  0.06210  0.73700  Biso   1.000  I 
