data_image0
_cell_length_a       10.7704
_cell_length_b       10.7704
_cell_length_c       3.96745
_cell_angle_alpha    90
_cell_angle_beta     90
_cell_angle_gamma    90

_symmetry_space_group_name_H-M    "P 1"
_symmetry_int_tables_number       1

loop_
  _symmetry_equiv_pos_as_xyz
  'x, y, z'

loop_
  _atom_site_label
  _atom_site_occupancy
  _atom_site_fract_x
  _atom_site_fract_y
  _atom_site_fract_z
  _atom_site_thermal_displace_type
  _atom_site_B_iso_or_equiv
  _atom_site_type_symbol
  Cl1      1.0000 0.34100  0.39100  0.24600  Biso   1.000  Cl
  Cl2      1.0000 0.65900  0.60900  0.24600  Biso   1.000  Cl
  Cl3      1.0000 0.60600  0.89400  0.76300  Biso   1.000  Cl
  Cl4      1.0000 0.39400  0.10600  0.76300  Biso   1.000  Cl
  Cl5      1.0000 0.10600  0.60600  0.23700  Biso   1.000  Cl
  Cl6      1.0000 0.89400  0.39400  0.23700  Biso   1.000  Cl
  Cl7      1.0000 0.39100  0.65900  0.75400  Biso   1.000  Cl
  Cl8      1.0000 0.60900  0.34100  0.75400  Biso   1.000  Cl
  Cl9      1.0000 0.89100  0.84100  0.24600  Biso   1.000  Cl
  Cl10     1.0000 0.10900  0.15900  0.24600  Biso   1.000  Cl
  Cl11     1.0000 0.15900  0.89100  0.75400  Biso   1.000  Cl
  Cl12     1.0000 0.84100  0.10900  0.75400  Biso   1.000  Cl
  Nb1      1.0000 0.37000  0.87000  0.69900  Biso   1.000  Nb
  Nb2      1.0000 0.63000  0.13000  0.69900  Biso   1.000  Nb
  Nb3      1.0000 0.87000  0.63000  0.30100  Biso   1.000  Nb
  Nb4      1.0000 0.13000  0.37000  0.30100  Biso   1.000  Nb
  O1       1.0000 0.38000  0.88000  0.24600  Biso   1.000  O 
  O2       1.0000 0.62000  0.12000  0.24600  Biso   1.000  O 
  O3       1.0000 0.88000  0.62000  0.75400  Biso   1.000  O 
  O4       1.0000 0.12000  0.38000  0.75400  Biso   1.000  O 
