data_image0
_cell_length_a       7.44278
_cell_length_b       7.44278
_cell_length_c       7.44278
_cell_angle_alpha    120
_cell_angle_beta     90
_cell_angle_gamma    120

_symmetry_space_group_name_H-M    "P 1"
_symmetry_int_tables_number       1

loop_
  _symmetry_equiv_pos_as_xyz
  'x, y, z'

loop_
  _atom_site_label
  _atom_site_occupancy
  _atom_site_fract_x
  _atom_site_fract_y
  _atom_site_fract_z
  _atom_site_thermal_displace_type
  _atom_site_B_iso_or_equiv
  _atom_site_type_symbol
  C1       1.0000 0.27700  0.00000  0.27700  Biso   1.000  C 
  C2       1.0000 0.72300  0.00000  0.27700  Biso   1.000  C 
  C3       1.0000 0.27700  0.55300  0.27700  Biso   1.000  C 
  C4       1.0000 0.27700  0.00000  0.72300  Biso   1.000  C 
  C5       1.0000 0.72300  0.00000  0.72300  Biso   1.000  C 
  C6       1.0000 0.72300  0.44700  0.72300  Biso   1.000  C 
  Cr1      1.0000 0.00000  0.00000  0.00000  Biso   1.000  Cr
  Cr2      1.0000 0.34000  0.00000  0.00000  Biso   1.000  Cr
  Cr3      1.0000 0.66000  0.00000  0.00000  Biso   1.000  Cr
  Cr4      1.0000 0.00000  0.34000  0.00000  Biso   1.000  Cr
  Cr5      1.0000 0.34000  0.34000  0.00000  Biso   1.000  Cr
  Cr6      1.0000 0.00000  0.66000  0.00000  Biso   1.000  Cr
  Cr7      1.0000 0.66000  0.66000  0.00000  Biso   1.000  Cr
  Cr8      1.0000 0.38100  0.76200  0.14300  Biso   1.000  Cr
  Cr9      1.0000 0.75000  0.50000  0.25000  Biso   1.000  Cr
  Cr10     1.0000 0.00000  0.00000  0.34000  Biso   1.000  Cr
  Cr11     1.0000 1.00000  0.34000  0.34000  Biso   1.000  Cr
  Cr12     1.0000 0.34000  0.34000  0.34000  Biso   1.000  Cr
  Cr13     1.0000 0.61900  0.23800  0.38100  Biso   1.000  Cr
  Cr14     1.0000 0.14300  0.76200  0.38100  Biso   1.000  Cr
  Cr15     1.0000 0.61900  0.76200  0.38100  Biso   1.000  Cr
  Cr16     1.0000 0.38100  0.23800  0.61900  Biso   1.000  Cr
  Cr17     1.0000 0.85700  0.23800  0.61900  Biso   1.000  Cr
  Cr18     1.0000 0.38100  0.76200  0.61900  Biso   1.000  Cr
  Cr19     1.0000 1.00000  0.00000  0.66000  Biso   1.000  Cr
  Cr20     1.0000 1.00000  0.66000  0.66000  Biso   1.000  Cr
  Cr21     1.0000 0.66000  0.66000  0.66000  Biso   1.000  Cr
  Cr22     1.0000 0.25000  0.50000  0.75000  Biso   1.000  Cr
  Cr23     1.0000 0.61900  0.23800  0.85700  Biso   1.000  Cr
