data_image0
_cell_length_a       8.33943
_cell_length_b       6.21549
_cell_length_c       11.0059
_cell_angle_alpha    90
_cell_angle_beta     90
_cell_angle_gamma    90

_symmetry_space_group_name_H-M    "P 1"
_symmetry_int_tables_number       1

loop_
  _symmetry_equiv_pos_as_xyz
  'x, y, z'

loop_
  _atom_site_label
  _atom_site_occupancy
  _atom_site_fract_x
  _atom_site_fract_y
  _atom_site_fract_z
  _atom_site_thermal_displace_type
  _atom_site_B_iso_or_equiv
  _atom_site_type_symbol
  Cs1      1.0000 0.16500  0.25000  0.09230  Biso   1.000  Cs
  Cs2      1.0000 0.51600  0.75000  0.19200  Biso   1.000  Cs
  Cs3      1.0000 0.01560  0.75000  0.30800  Biso   1.000  Cs
  Cs4      1.0000 0.66500  0.25000  0.40800  Biso   1.000  Cs
  Cs5      1.0000 0.33500  0.75000  0.59200  Biso   1.000  Cs
  Cs6      1.0000 0.98400  0.25000  0.69200  Biso   1.000  Cs
  Cs7      1.0000 0.48400  0.25000  0.80800  Biso   1.000  Cs
  Cs8      1.0000 0.83500  0.75000  0.90800  Biso   1.000  Cs
  Mn1      1.0000 0.73500  0.25000  0.08050  Biso   1.000  Mn
  Mn2      1.0000 0.23500  0.25000  0.41900  Biso   1.000  Mn
  Mn3      1.0000 0.76500  0.75000  0.58100  Biso   1.000  Mn
  Mn4      1.0000 0.26500  0.75000  0.91900  Biso   1.000  Mn
  O1       1.0000 0.20800  0.75000  0.06490  Biso   1.000  O 
  O2       1.0000 0.53600  0.25000  0.08660  Biso   1.000  O 
  O3       1.0000 0.80900  0.03300  0.14900  Biso   1.000  O 
  O4       1.0000 0.80900  0.46700  0.14900  Biso   1.000  O 
  O5       1.0000 0.30900  0.03300  0.35100  Biso   1.000  O 
  O6       1.0000 0.30900  0.46700  0.35100  Biso   1.000  O 
  O7       1.0000 0.03630  0.25000  0.41300  Biso   1.000  O 
  O8       1.0000 0.70800  0.75000  0.43500  Biso   1.000  O 
  O9       1.0000 0.29200  0.25000  0.56500  Biso   1.000  O 
  O10      1.0000 0.96400  0.75000  0.58700  Biso   1.000  O 
  O11      1.0000 0.69100  0.53300  0.64900  Biso   1.000  O 
  O12      1.0000 0.69100  0.96700  0.64900  Biso   1.000  O 
  O13      1.0000 0.19100  0.53300  0.85100  Biso   1.000  O 
  O14      1.0000 0.19100  0.96700  0.85100  Biso   1.000  O 
  O15      1.0000 0.46400  0.75000  0.91300  Biso   1.000  O 
  O16      1.0000 0.79200  0.25000  0.93500  Biso   1.000  O 
