data_image0
_cell_length_a       5.99636
_cell_length_b       5.99636
_cell_length_c       5.99636
_cell_angle_alpha    119.998
_cell_angle_beta     90.0027
_cell_angle_gamma    119.998

_symmetry_space_group_name_H-M    "P 1"
_symmetry_int_tables_number       1

loop_
  _symmetry_equiv_pos_as_xyz
  'x, y, z'

loop_
  _atom_site_label
  _atom_site_occupancy
  _atom_site_fract_x
  _atom_site_fract_y
  _atom_site_fract_z
  _atom_site_thermal_displace_type
  _atom_site_B_iso_or_equiv
  _atom_site_type_symbol
  O1       1.0000 0.62300  0.24700  0.37600  Biso   1.000  O 
  O2       1.0000 0.12900  0.75300  0.37600  Biso   1.000  O 
  O3       1.0000 0.62400  0.75300  0.37700  Biso   1.000  O 
  O4       1.0000 0.12600  0.25300  0.37900  Biso   1.000  O 
  O5       1.0000 0.62400  0.24700  0.87100  Biso   1.000  O 
  O6       1.0000 0.12600  0.74700  0.87300  Biso   1.000  O 
  O7       1.0000 0.12700  0.25300  0.87400  Biso   1.000  O 
  O8       1.0000 0.62100  0.74700  0.87400  Biso   1.000  O 
  Ti1      1.0000 0.00000  0.00000  0.00000  Biso   1.000  Ti
  Ti2      1.0000 0.75000  0.50000  0.25000  Biso   1.000  Ti
  Zn1      1.0000 0.37500  0.75000  0.12500  Biso   1.000  Zn
  Zn2      1.0000 0.87500  0.25000  0.62500  Biso   1.000  Zn
  Zn3      1.0000 0.37500  0.25000  0.62500  Biso   1.000  Zn
  Zn4      1.0000 0.37500  0.75000  0.62500  Biso   1.000  Zn
