data_image0
_cell_length_a       5.44719
_cell_length_b       7.42429
_cell_length_c       4.38526
_cell_angle_alpha    90
_cell_angle_beta     90
_cell_angle_gamma    90

_symmetry_space_group_name_H-M    "P 1"
_symmetry_int_tables_number       1

loop_
  _symmetry_equiv_pos_as_xyz
  'x, y, z'

loop_
  _atom_site_label
  _atom_site_occupancy
  _atom_site_fract_x
  _atom_site_fract_y
  _atom_site_fract_z
  _atom_site_thermal_displace_type
  _atom_site_B_iso_or_equiv
  _atom_site_type_symbol
  B1       1.0000 0.63300  0.06340  0.05790  Biso   1.000  B 
  B2       1.0000 0.13300  0.43700  0.05790  Biso   1.000  B 
  B3       1.0000 0.05410  0.64600  0.25000  Biso   1.000  B 
  B4       1.0000 0.72200  0.65400  0.25000  Biso   1.000  B 
  B5       1.0000 0.22200  0.84600  0.25000  Biso   1.000  B 
  B6       1.0000 0.55400  0.85400  0.25000  Biso   1.000  B 
  B7       1.0000 0.63300  0.06340  0.44200  Biso   1.000  B 
  B8       1.0000 0.13300  0.43700  0.44200  Biso   1.000  B 
  B9       1.0000 0.86700  0.56300  0.55800  Biso   1.000  B 
  B10      1.0000 0.36700  0.93700  0.55800  Biso   1.000  B 
  B11      1.0000 0.44600  0.14600  0.75000  Biso   1.000  B 
  B12      1.0000 0.77800  0.15400  0.75000  Biso   1.000  B 
  B13      1.0000 0.27800  0.34600  0.75000  Biso   1.000  B 
  B14      1.0000 0.94600  0.35400  0.75000  Biso   1.000  B 
  B15      1.0000 0.86700  0.56300  0.94200  Biso   1.000  B 
  B16      1.0000 0.36700  0.93700  0.94200  Biso   1.000  B 
  Mg1      1.0000 0.04990  0.13800  0.25000  Biso   1.000  Mg
  Mg2      1.0000 0.55000  0.36200  0.25000  Biso   1.000  Mg
  Mg3      1.0000 0.45000  0.63800  0.75000  Biso   1.000  Mg
  Mg4      1.0000 0.95000  0.86200  0.75000  Biso   1.000  Mg
