data_image0
_cell_length_a       8.36089
_cell_length_b       8.36089
_cell_length_c       8.36089
_cell_angle_alpha    90
_cell_angle_beta     90
_cell_angle_gamma    90

_symmetry_space_group_name_H-M    "P 1"
_symmetry_int_tables_number       1

loop_
  _symmetry_equiv_pos_as_xyz
  'x, y, z'

loop_
  _atom_site_label
  _atom_site_occupancy
  _atom_site_fract_x
  _atom_site_fract_y
  _atom_site_fract_z
  _atom_site_thermal_displace_type
  _atom_site_B_iso_or_equiv
  _atom_site_type_symbol
  Fe1      1.0000 0.99700  0.99700  0.99700  Biso   1.000  Fe
  Fe2      1.0000 0.49700  0.50300  0.00297  Biso   1.000  Fe
  Fe3      1.0000 0.62500  0.13400  0.11600  Biso   1.000  Fe
  Fe4      1.0000 0.36600  0.88400  0.12500  Biso   1.000  Fe
  Fe5      1.0000 0.11600  0.62500  0.13400  Biso   1.000  Fe
  Fe6      1.0000 0.74700  0.75300  0.24700  Biso   1.000  Fe
  Fe7      1.0000 0.25300  0.25300  0.25300  Biso   1.000  Fe
  Fe8      1.0000 0.88400  0.12500  0.36600  Biso   1.000  Fe
  Fe9      1.0000 0.63400  0.38400  0.37500  Biso   1.000  Fe
  Fe10     1.0000 0.37500  0.63400  0.38400  Biso   1.000  Fe
  Fe11     1.0000 0.50300  0.00297  0.49700  Biso   1.000  Fe
  Fe12     1.0000 0.00297  0.49700  0.50300  Biso   1.000  Fe
  Fe13     1.0000 0.87500  0.86600  0.61600  Biso   1.000  Fe
  Fe14     1.0000 0.13400  0.11600  0.62500  Biso   1.000  Fe
  Fe15     1.0000 0.38400  0.37500  0.63400  Biso   1.000  Fe
  Fe16     1.0000 0.75300  0.24700  0.74700  Biso   1.000  Fe
  Fe17     1.0000 0.24700  0.74700  0.75300  Biso   1.000  Fe
  Fe18     1.0000 0.61600  0.87500  0.86600  Biso   1.000  Fe
  Fe19     1.0000 0.86600  0.61600  0.87500  Biso   1.000  Fe
  Fe20     1.0000 0.12500  0.36600  0.88400  Biso   1.000  Fe
  Li1      1.0000 0.87500  0.37500  0.12500  Biso   1.000  Li
  Li2      1.0000 0.12500  0.87500  0.37500  Biso   1.000  Li
  Li3      1.0000 0.62500  0.62500  0.62500  Biso   1.000  Li
  Li4      1.0000 0.37500  0.12500  0.87500  Biso   1.000  Li
  O1       1.0000 0.61300  0.88700  0.11300  Biso   1.000  O 
  O2       1.0000 0.88100  0.62500  0.11600  Biso   1.000  O 
  O3       1.0000 0.12500  0.38400  0.11900  Biso   1.000  O 
  O4       1.0000 0.38400  0.11900  0.12500  Biso   1.000  O 
  O5       1.0000 0.13100  0.86600  0.12500  Biso   1.000  O 
  O6       1.0000 0.86600  0.12500  0.13100  Biso   1.000  O 
  O7       1.0000 0.62500  0.36900  0.13400  Biso   1.000  O 
  O8       1.0000 0.36300  0.63700  0.13700  Biso   1.000  O 
  O9       1.0000 0.63700  0.13700  0.36300  Biso   1.000  O 
  O10      1.0000 0.37500  0.86900  0.36600  Biso   1.000  O 
  O11      1.0000 0.13400  0.62500  0.36900  Biso   1.000  O 
  O12      1.0000 0.86900  0.36600  0.37500  Biso   1.000  O 
  O13      1.0000 0.61600  0.61900  0.37500  Biso   1.000  O 
  O14      1.0000 0.87500  0.88400  0.38100  Biso   1.000  O 
  O15      1.0000 0.11900  0.12500  0.38400  Biso   1.000  O 
  O16      1.0000 0.38700  0.38700  0.38700  Biso   1.000  O 
  O17      1.0000 0.88700  0.11300  0.61300  Biso   1.000  O 
  O18      1.0000 0.61900  0.37500  0.61600  Biso   1.000  O 
  O19      1.0000 0.37500  0.61600  0.61900  Biso   1.000  O 
  O20      1.0000 0.11600  0.88100  0.62500  Biso   1.000  O 
  O21      1.0000 0.36900  0.13400  0.62500  Biso   1.000  O 
  O22      1.0000 0.63400  0.87500  0.63100  Biso   1.000  O 
  O23      1.0000 0.87500  0.63100  0.63400  Biso   1.000  O 
  O24      1.0000 0.13700  0.36300  0.63700  Biso   1.000  O 
  O25      1.0000 0.86300  0.86300  0.86300  Biso   1.000  O 
  O26      1.0000 0.12500  0.13100  0.86600  Biso   1.000  O 
  O27      1.0000 0.36600  0.37500  0.86900  Biso   1.000  O 
  O28      1.0000 0.63100  0.63400  0.87500  Biso   1.000  O 
  O29      1.0000 0.88400  0.38100  0.87500  Biso   1.000  O 
  O30      1.0000 0.62500  0.11600  0.88100  Biso   1.000  O 
  O31      1.0000 0.38100  0.87500  0.88400  Biso   1.000  O 
  O32      1.0000 0.11300  0.61300  0.88700  Biso   1.000  O 
