data_image0
_cell_length_a       6.82084
_cell_length_b       9.62806
_cell_length_c       10.398
_cell_angle_alpha    90
_cell_angle_beta     92.0896
_cell_angle_gamma    90

_symmetry_space_group_name_H-M    "P 1"
_symmetry_int_tables_number       1

loop_
  _symmetry_equiv_pos_as_xyz
  'x, y, z'

loop_
  _atom_site_label
  _atom_site_occupancy
  _atom_site_fract_x
  _atom_site_fract_y
  _atom_site_fract_z
  _atom_site_thermal_displace_type
  _atom_site_B_iso_or_equiv
  _atom_site_type_symbol
  Mn1      1.0000 0.42200  0.83200  0.07450  Biso   1.000  Mn
  Mn2      1.0000 0.78200  0.33200  0.22000  Biso   1.000  Mn
  Mn3      1.0000 0.21800  0.83200  0.28000  Biso   1.000  Mn
  Mn4      1.0000 0.57800  0.33200  0.42500  Biso   1.000  Mn
  Mn5      1.0000 0.42200  0.66800  0.57500  Biso   1.000  Mn
  Mn6      1.0000 0.78200  0.16800  0.72000  Biso   1.000  Mn
  Mn7      1.0000 0.21800  0.66800  0.78000  Biso   1.000  Mn
  Mn8      1.0000 0.57800  0.16800  0.92500  Biso   1.000  Mn
  O1       1.0000 0.50000  0.00000  0.00000  Biso   1.000  O 
  O2       1.0000 0.66200  0.75200  0.04590  Biso   1.000  O 
  O3       1.0000 0.69000  0.21900  0.08510  Biso   1.000  O 
  O4       1.0000 0.16000  0.92000  0.11600  Biso   1.000  O 
  O5       1.0000 0.84000  0.48300  0.12100  Biso   1.000  O 
  O6       1.0000 0.31900  0.67200  0.16100  Biso   1.000  O 
  O7       1.0000 0.03200  0.25600  0.21300  Biso   1.000  O 
  O8       1.0000 0.49300  0.89800  0.24900  Biso   1.000  O 
  O9       1.0000 0.50700  0.39800  0.25100  Biso   1.000  O 
  O10      1.0000 0.96800  0.75600  0.28700  Biso   1.000  O 
  O11      1.0000 0.68100  0.17200  0.33900  Biso   1.000  O 
  O12      1.0000 0.16000  0.98300  0.37900  Biso   1.000  O 
  O13      1.0000 0.84000  0.42000  0.38400  Biso   1.000  O 
  O14      1.0000 0.31000  0.71900  0.41500  Biso   1.000  O 
  O15      1.0000 0.33800  0.25200  0.45400  Biso   1.000  O 
  O16      1.0000 0.50000  0.50000  0.50000  Biso   1.000  O 
  O17      1.0000 0.66200  0.74800  0.54600  Biso   1.000  O 
  O18      1.0000 0.69000  0.28100  0.58500  Biso   1.000  O 
  O19      1.0000 0.16000  0.58000  0.61600  Biso   1.000  O 
  O20      1.0000 0.84000  0.01680  0.62100  Biso   1.000  O 
  O21      1.0000 0.31900  0.82800  0.66100  Biso   1.000  O 
  O22      1.0000 0.03200  0.24400  0.71300  Biso   1.000  O 
  O23      1.0000 0.49300  0.60200  0.74900  Biso   1.000  O 
  O24      1.0000 0.50700  0.10200  0.75100  Biso   1.000  O 
  O25      1.0000 0.96800  0.74400  0.78700  Biso   1.000  O 
  O26      1.0000 0.68100  0.32800  0.83900  Biso   1.000  O 
  O27      1.0000 0.16000  0.51700  0.87900  Biso   1.000  O 
  O28      1.0000 0.84000  0.08000  0.88400  Biso   1.000  O 
  O29      1.0000 0.31000  0.78100  0.91500  Biso   1.000  O 
  O30      1.0000 0.33800  0.24800  0.95400  Biso   1.000  O 
  Sr1      1.0000 0.50000  0.50000  0.00000  Biso   1.000  Sr
  Sr2      1.0000 0.00000  0.68700  0.03330  Biso   1.000  Sr
  Sr3      1.0000 0.82200  0.99400  0.17000  Biso   1.000  Sr
  Sr4      1.0000 0.35300  0.14900  0.19600  Biso   1.000  Sr
  Sr5      1.0000 0.64700  0.64900  0.30400  Biso   1.000  Sr
  Sr6      1.0000 0.17800  0.49400  0.33000  Biso   1.000  Sr
  Sr7      1.0000 0.00000  0.18700  0.46700  Biso   1.000  Sr
  Sr8      1.0000 0.50000  0.00000  0.50000  Biso   1.000  Sr
  Sr9      1.0000 0.00000  0.81300  0.53300  Biso   1.000  Sr
  Sr10     1.0000 0.82200  0.50600  0.67000  Biso   1.000  Sr
  Sr11     1.0000 0.35300  0.35100  0.69600  Biso   1.000  Sr
  Sr12     1.0000 0.64700  0.85100  0.80400  Biso   1.000  Sr
  Sr13     1.0000 0.17800  0.00571  0.83000  Biso   1.000  Sr
  Sr14     1.0000 0.00000  0.31300  0.96700  Biso   1.000  Sr
