data_image0
_cell_length_a       5.43328
_cell_length_b       4.89061
_cell_length_c       7.77181
_cell_angle_alpha    90.0201
_cell_angle_beta     90.0033
_cell_angle_gamma    90.0038

_symmetry_space_group_name_H-M    "P 1"
_symmetry_int_tables_number       1

loop_
  _symmetry_equiv_pos_as_xyz
  'x, y, z'

loop_
  _atom_site_label
  _atom_site_occupancy
  _atom_site_fract_x
  _atom_site_fract_y
  _atom_site_fract_z
  _atom_site_thermal_displace_type
  _atom_site_B_iso_or_equiv
  _atom_site_type_symbol
  C1       1.0000 0.59700  0.25000  0.23400  Biso   1.000  C 
  C2       1.0000 0.40300  0.75000  0.76600  Biso   1.000  C 
  C3       1.0000 0.09660  0.25000  0.26600  Biso   1.000  C 
  C4       1.0000 0.90300  0.75000  0.73400  Biso   1.000  C 
  Ca1      1.0000 0.26300  0.75000  0.41600  Biso   1.000  Ca
  Ca2      1.0000 0.73700  0.25000  0.58400  Biso   1.000  Ca
  Ca3      1.0000 0.76300  0.75000  0.08350  Biso   1.000  Ca
  Ca4      1.0000 0.23700  0.25000  0.91600  Biso   1.000  Ca
  O1       1.0000 0.09700  0.02190  0.18200  Biso   1.000  O 
  O2       1.0000 0.61200  0.25000  0.06850  Biso   1.000  O 
  O3       1.0000 0.38800  0.75000  0.93100  Biso   1.000  O 
  O4       1.0000 0.11200  0.25000  0.43200  Biso   1.000  O 
  O5       1.0000 0.88800  0.75000  0.56800  Biso   1.000  O 
  O6       1.0000 0.59700  0.47800  0.31800  Biso   1.000  O 
  O7       1.0000 0.40300  0.52200  0.68200  Biso   1.000  O 
  O8       1.0000 0.90300  0.97800  0.81800  Biso   1.000  O 
  O9       1.0000 0.09690  0.47800  0.18200  Biso   1.000  O 
  O10      1.0000 0.90300  0.52200  0.81800  Biso   1.000  O 
  O11      1.0000 0.59700  0.02200  0.31800  Biso   1.000  O 
  O12      1.0000 0.40300  0.97800  0.68200  Biso   1.000  O 
