data_image0
_cell_length_a       3.69471
_cell_length_b       3.69472
_cell_length_c       6.22689
_cell_angle_alpha    107.258
_cell_angle_beta     72.742
_cell_angle_gamma    120

_symmetry_space_group_name_H-M    "P 1"
_symmetry_int_tables_number       1

loop_
  _symmetry_equiv_pos_as_xyz
  'x, y, z'

loop_
  _atom_site_label
  _atom_site_occupancy
  _atom_site_fract_x
  _atom_site_fract_y
  _atom_site_fract_z
  _atom_site_thermal_displace_type
  _atom_site_B_iso_or_equiv
  _atom_site_type_symbol
  Cl1      1.0000 0.25500  0.74500  0.23600  Biso   1.000  Cl
  Cl2      1.0000 0.74500  0.25500  0.76400  Biso   1.000  Cl
  Mn1      1.0000 0.00000  0.00000  0.00000  Biso   1.000  Mn
