data_image0
_cell_length_a       4.74454
_cell_length_b       4.74454
_cell_length_c       6.24291
_cell_angle_alpha    112.333
_cell_angle_beta     112.333
_cell_angle_gamma    90

_symmetry_space_group_name_H-M    "P 1"
_symmetry_int_tables_number       1

loop_
  _symmetry_equiv_pos_as_xyz
  'x, y, z'

loop_
  _atom_site_label
  _atom_site_occupancy
  _atom_site_fract_x
  _atom_site_fract_y
  _atom_site_fract_z
  _atom_site_thermal_displace_type
  _atom_site_B_iso_or_equiv
  _atom_site_type_symbol
  O1       1.0000 0.33700  0.23500  0.15700  Biso   1.000  O 
  O2       1.0000 0.82000  0.92200  0.15700  Biso   1.000  O 
  O3       1.0000 0.91300  0.51500  0.34300  Biso   1.000  O 
  O4       1.0000 0.43000  0.82800  0.34300  Biso   1.000  O 
  O5       1.0000 0.17200  0.08700  0.65700  Biso   1.000  O 
  O6       1.0000 0.48500  0.57000  0.65700  Biso   1.000  O 
  O7       1.0000 0.76500  0.18000  0.84300  Biso   1.000  O 
  O8       1.0000 0.07820  0.66300  0.84300  Biso   1.000  O 
  Si1      1.0000 0.00000  0.00000  0.00000  Biso   1.000  Si
  Si2      1.0000 0.25000  0.75000  0.50000  Biso   1.000  Si
  Zr1      1.0000 0.50000  0.50000  0.00000  Biso   1.000  Zr
  Zr2      1.0000 0.75000  0.25000  0.50000  Biso   1.000  Zr
