data_image0
_cell_length_a       5.03947
_cell_length_b       5.6432
_cell_length_c       7.19602
_cell_angle_alpha    109.36
_cell_angle_beta     90
_cell_angle_gamma    116.52

_symmetry_space_group_name_H-M    "P 1"
_symmetry_int_tables_number       1

loop_
  _symmetry_equiv_pos_as_xyz
  'x, y, z'

loop_
  _atom_site_label
  _atom_site_occupancy
  _atom_site_fract_x
  _atom_site_fract_y
  _atom_site_fract_z
  _atom_site_thermal_displace_type
  _atom_site_B_iso_or_equiv
  _atom_site_type_symbol
  O1       1.0000 0.75900  0.83500  0.05800  Biso   1.000  O 
  O2       1.0000 0.85100  0.38100  0.15100  Biso   1.000  O 
  O3       1.0000 0.31300  0.00000  0.25000  Biso   1.000  O 
  O4       1.0000 0.46900  0.61900  0.34900  Biso   1.000  O 
  O5       1.0000 0.92400  0.16500  0.44200  Biso   1.000  O 
  O6       1.0000 0.07570  0.83500  0.55800  Biso   1.000  O 
  O7       1.0000 0.53100  0.38100  0.65100  Biso   1.000  O 
  O8       1.0000 0.68700  0.00000  0.75000  Biso   1.000  O 
  O9       1.0000 0.14900  0.61900  0.84900  Biso   1.000  O 
  O10      1.0000 0.24100  0.16500  0.94200  Biso   1.000  O 
  Ti1      1.0000 0.50000  0.00000  0.00000  Biso   1.000  Ti
  Ti2      1.0000 0.13500  0.25400  0.21600  Biso   1.000  Ti
  Ti3      1.0000 0.88000  0.74600  0.28400  Biso   1.000  Ti
  Ti4      1.0000 0.50000  0.00000  0.50000  Biso   1.000  Ti
  Ti5      1.0000 0.12000  0.25400  0.71600  Biso   1.000  Ti
  Ti6      1.0000 0.86500  0.74600  0.78400  Biso   1.000  Ti
