data_image0
_cell_length_a       10.0567
_cell_length_b       10.0567
_cell_length_c       14.7927
_cell_angle_alpha    95.1926
_cell_angle_beta     106.245
_cell_angle_gamma    117.09

_symmetry_space_group_name_H-M    "P 1"
_symmetry_int_tables_number       1

loop_
  _symmetry_equiv_pos_as_xyz
  'x, y, z'

loop_
  _atom_site_label
  _atom_site_occupancy
  _atom_site_fract_x
  _atom_site_fract_y
  _atom_site_fract_z
  _atom_site_thermal_displace_type
  _atom_site_B_iso_or_equiv
  _atom_site_type_symbol
  Cl1      1.0000 0.23700  0.73100  0.01500  Biso   1.000  Cl
  Cl2      1.0000 0.67100  0.85900  0.04910  Biso   1.000  Cl
  Cl3      1.0000 0.20800  0.36600  0.05930  Biso   1.000  Cl
  Cl4      1.0000 0.11400  0.98900  0.12400  Biso   1.000  Cl
  Cl5      1.0000 0.61700  0.49000  0.12500  Biso   1.000  Cl
  Cl6      1.0000 0.56600  0.11900  0.18600  Biso   1.000  Cl
  Cl7      1.0000 0.06970  0.61600  0.19100  Biso   1.000  Cl
  Cl8      1.0000 0.47700  0.74500  0.24500  Biso   1.000  Cl
  Cl9      1.0000 0.00000  0.23100  0.25500  Biso   1.000  Cl
  Cl10     1.0000 0.92600  0.87900  0.30900  Biso   1.000  Cl
  Cl11     1.0000 0.43400  0.38000  0.31400  Biso   1.000  Cl
  Cl12     1.0000 0.86500  0.49200  0.37500  Biso   1.000  Cl
  Cl13     1.0000 0.36500  0.99000  0.37600  Biso   1.000  Cl
  Cl14     1.0000 0.80600  0.14900  0.44100  Biso   1.000  Cl
  Cl15     1.0000 0.31000  0.62200  0.45100  Biso   1.000  Cl
  Cl16     1.0000 0.21600  0.22200  0.48500  Biso   1.000  Cl
  Cl17     1.0000 0.78400  0.77800  0.51500  Biso   1.000  Cl
  Cl18     1.0000 0.69000  0.37800  0.54900  Biso   1.000  Cl
  Cl19     1.0000 0.19400  0.85100  0.55900  Biso   1.000  Cl
  Cl20     1.0000 0.63500  0.00981  0.62400  Biso   1.000  Cl
  Cl21     1.0000 0.13500  0.50800  0.62500  Biso   1.000  Cl
  Cl22     1.0000 0.56600  0.62000  0.68600  Biso   1.000  Cl
  Cl23     1.0000 0.07450  0.12100  0.69100  Biso   1.000  Cl
  Cl24     1.0000 0.00017  0.76900  0.74500  Biso   1.000  Cl
  Cl25     1.0000 0.52300  0.25500  0.75500  Biso   1.000  Cl
  Cl26     1.0000 0.93000  0.38400  0.80900  Biso   1.000  Cl
  Cl27     1.0000 0.43400  0.88100  0.81400  Biso   1.000  Cl
  Cl28     1.0000 0.38300  0.51000  0.87500  Biso   1.000  Cl
  Cl29     1.0000 0.88600  0.01110  0.87600  Biso   1.000  Cl
  Cl30     1.0000 0.79200  0.63400  0.94100  Biso   1.000  Cl
  Cl31     1.0000 0.32900  0.14100  0.95100  Biso   1.000  Cl
  Cl32     1.0000 0.76300  0.26900  0.98500  Biso   1.000  Cl
  Te1      1.0000 0.37900  0.26400  0.11000  Biso   1.000  Te
  Te2      1.0000 0.29600  0.83100  0.18100  Biso   1.000  Te
  Te3      1.0000 0.15000  0.11400  0.31900  Biso   1.000  Te
  Te4      1.0000 0.65400  0.26900  0.39000  Biso   1.000  Te
  Te5      1.0000 0.34600  0.73100  0.61000  Biso   1.000  Te
  Te6      1.0000 0.85000  0.88600  0.68100  Biso   1.000  Te
  Te7      1.0000 0.70400  0.16900  0.81900  Biso   1.000  Te
  Te8      1.0000 0.62100  0.73600  0.89000  Biso   1.000  Te
