data_image0
_cell_length_a       6.28888
_cell_length_b       6.28902
_cell_length_c       17.8921
_cell_angle_alpha    89.9924
_cell_angle_beta     89.9842
_cell_angle_gamma    120.022

_symmetry_space_group_name_H-M    "P 1"
_symmetry_int_tables_number       1

loop_
  _symmetry_equiv_pos_as_xyz
  'x, y, z'

loop_
  _atom_site_label
  _atom_site_occupancy
  _atom_site_fract_x
  _atom_site_fract_y
  _atom_site_fract_z
  _atom_site_thermal_displace_type
  _atom_site_B_iso_or_equiv
  _atom_site_type_symbol
  Br1      1.0000 0.68200  0.66500  0.74600  Biso   1.000  Br
  Br2      1.0000 0.34900  0.34900  0.25400  Biso   1.000  Br
  Br3      1.0000 0.00069  0.35100  0.41300  Biso   1.000  Br
  Br4      1.0000 0.35000  0.99900  0.41300  Biso   1.000  Br
  Br5      1.0000 0.64900  0.65000  0.41300  Biso   1.000  Br
  Br6      1.0000 0.98400  0.66800  0.58700  Biso   1.000  Br
  Br7      1.0000 0.68500  0.01660  0.58700  Biso   1.000  Br
  Br8      1.0000 0.33300  0.31600  0.58700  Biso   1.000  Br
  Br9      1.0000 0.98400  0.31800  0.74600  Biso   1.000  Br
  Br10     1.0000 0.33400  0.01650  0.74700  Biso   1.000  Br
  Br11     1.0000 0.01660  0.68200  0.92000  Biso   1.000  Br
  Br12     1.0000 0.66600  0.98400  0.92000  Biso   1.000  Br
  Br13     1.0000 0.31900  0.33400  0.92000  Biso   1.000  Br
  Br14     1.0000 0.01460  0.33200  0.07970  Biso   1.000  Br
  Br15     1.0000 0.31700  0.98400  0.07990  Biso   1.000  Br
  Br16     1.0000 0.66700  0.68300  0.07990  Biso   1.000  Br
  Br17     1.0000 0.99900  0.65000  0.25300  Biso   1.000  Br
  Br18     1.0000 0.65100  0.00137  0.25300  Biso   1.000  Br
  Cr1      1.0000 0.66700  0.33300  0.66700  Biso   1.000  Cr
  Cr2      1.0000 0.33300  0.66700  0.00041  Biso   1.000  Cr
  Cr3      1.0000 0.66700  0.33300  0.33300  Biso   1.000  Cr
  Cr4      1.0000 1.00000  1.00000  1.00000  Biso   1.000  Cr
  Cr5      1.0000 0.33300  0.66700  0.33300  Biso   1.000  Cr
  Cr6      1.0000 0.00010  0.00000  0.66700  Biso   1.000  Cr
