data_image0
_cell_length_a       4.0074
_cell_length_b       4.00759
_cell_length_c       9.67017
_cell_angle_alpha    90
_cell_angle_beta     90.0055
_cell_angle_gamma    120.002

_symmetry_space_group_name_H-M    "P 1"
_symmetry_int_tables_number       1

loop_
  _symmetry_equiv_pos_as_xyz
  'x, y, z'

loop_
  _atom_site_label
  _atom_site_occupancy
  _atom_site_fract_x
  _atom_site_fract_y
  _atom_site_fract_z
  _atom_site_thermal_displace_type
  _atom_site_B_iso_or_equiv
  _atom_site_type_symbol
  In1      1.0000 0.66700  0.33300  0.19400  Biso   1.000  In
  In2      1.0000 0.33300  0.66700  0.80600  Biso   1.000  In
  Se1      1.0000 0.00000  0.00000  0.00000  Biso   1.000  Se
  Se2      1.0000 0.33300  0.66700  0.33200  Biso   1.000  Se
  Se3      1.0000 0.66700  0.33300  0.66800  Biso   1.000  Se
