data_image0
_cell_length_a       11.0615
_cell_length_b       11.0615
_cell_length_c       6.06789
_cell_angle_alpha    90
_cell_angle_beta     90.0004
_cell_angle_gamma    120

_symmetry_space_group_name_H-M    "P 1"
_symmetry_int_tables_number       1

loop_
  _symmetry_equiv_pos_as_xyz
  'x, y, z'

loop_
  _atom_site_label
  _atom_site_occupancy
  _atom_site_fract_x
  _atom_site_fract_y
  _atom_site_fract_z
  _atom_site_thermal_displace_type
  _atom_site_B_iso_or_equiv
  _atom_site_type_symbol
  Cl1      1.0000 0.79100  0.89600  0.23600  Biso   1.000  Cl
  Cl2      1.0000 0.10400  0.20900  0.23600  Biso   1.000  Cl
  Cl3      1.0000 0.10400  0.89600  0.23600  Biso   1.000  Cl
  Cl4      1.0000 0.12500  0.56200  0.24900  Biso   1.000  Cl
  Cl5      1.0000 0.43800  0.87500  0.24900  Biso   1.000  Cl
  Cl6      1.0000 0.43800  0.56200  0.24900  Biso   1.000  Cl
  Cl7      1.0000 0.45700  0.22900  0.27800  Biso   1.000  Cl
  Cl8      1.0000 0.77100  0.22900  0.27800  Biso   1.000  Cl
  Cl9      1.0000 0.77100  0.54300  0.27800  Biso   1.000  Cl
  Cl10     1.0000 0.22900  0.77100  0.72200  Biso   1.000  Cl
  Cl11     1.0000 0.22900  0.45700  0.72200  Biso   1.000  Cl
  Cl12     1.0000 0.54300  0.77100  0.72200  Biso   1.000  Cl
  Cl13     1.0000 0.56200  0.12500  0.75100  Biso   1.000  Cl
  Cl14     1.0000 0.56200  0.43800  0.75100  Biso   1.000  Cl
  Cl15     1.0000 0.87500  0.43800  0.75100  Biso   1.000  Cl
  Cl16     1.0000 0.89600  0.10400  0.76400  Biso   1.000  Cl
  Cl17     1.0000 0.89600  0.79100  0.76400  Biso   1.000  Cl
  Cl18     1.0000 0.20900  0.10400  0.76400  Biso   1.000  Cl
  U1       1.0000 0.00000  0.00000  0.00000  Biso   1.000  U 
  U2       1.0000 0.33300  0.66700  0.48600  Biso   1.000  U 
  U3       1.0000 0.66700  0.33300  0.51400  Biso   1.000  U 
