data_image0
_cell_length_a       3.99945
_cell_length_b       6.69844
_cell_length_c       6.91989
_cell_angle_alpha    104.632
_cell_angle_beta     106.797
_cell_angle_gamma    90

_symmetry_space_group_name_H-M    "P 1"
_symmetry_int_tables_number       1

loop_
  _symmetry_equiv_pos_as_xyz
  'x, y, z'

loop_
  _atom_site_label
  _atom_site_occupancy
  _atom_site_fract_x
  _atom_site_fract_y
  _atom_site_fract_z
  _atom_site_thermal_displace_type
  _atom_site_B_iso_or_equiv
  _atom_site_type_symbol
  Br1      1.0000 0.53300  0.68200  0.23800  Biso   1.000  Br
  Br2      1.0000 0.20400  0.18200  0.23800  Biso   1.000  Br
  Br3      1.0000 0.79600  0.81800  0.76200  Biso   1.000  Br
  Br4      1.0000 0.46700  0.31800  0.76200  Biso   1.000  Br
  Pd1      1.0000 0.50000  0.50000  0.50000  Biso   1.000  Pd
  Pd2      1.0000 0.50000  0.00000  0.50000  Biso   1.000  Pd
