data_image0
_cell_length_a       6.17683
_cell_length_b       6.17683
_cell_length_c       8.58933
_cell_angle_alpha    90
_cell_angle_beta     90
_cell_angle_gamma    90

_symmetry_space_group_name_H-M    "P 1"
_symmetry_int_tables_number       1

loop_
  _symmetry_equiv_pos_as_xyz
  'x, y, z'

loop_
  _atom_site_label
  _atom_site_occupancy
  _atom_site_fract_x
  _atom_site_fract_y
  _atom_site_fract_z
  _atom_site_thermal_displace_type
  _atom_site_B_iso_or_equiv
  _atom_site_type_symbol
  Mn1      1.0000 0.00000  0.25600  0.00000  Biso   1.000  Mn
  Mn2      1.0000 0.75000  0.75000  0.12500  Biso   1.000  Mn
  Mn3      1.0000 0.25600  0.00000  0.25000  Biso   1.000  Mn
  Mn4      1.0000 0.75000  0.25000  0.37500  Biso   1.000  Mn
  Mn5      1.0000 0.00000  0.74400  0.50000  Biso   1.000  Mn
  Mn6      1.0000 0.25000  0.25000  0.62500  Biso   1.000  Mn
  Mn7      1.0000 0.74400  0.00000  0.75000  Biso   1.000  Mn
  Mn8      1.0000 0.25000  0.75000  0.87500  Biso   1.000  Mn
  O1       1.0000 0.73000  0.03630  0.00375  Biso   1.000  O 
  O2       1.0000 0.27000  0.48600  0.02000  Biso   1.000  O 
  O3       1.0000 0.48600  0.27000  0.23000  Biso   1.000  O 
  O4       1.0000 0.03630  0.73000  0.24600  Biso   1.000  O 
  O5       1.0000 0.03630  0.27000  0.25400  Biso   1.000  O 
  O6       1.0000 0.48600  0.73000  0.27000  Biso   1.000  O 
  O7       1.0000 0.27000  0.51400  0.48000  Biso   1.000  O 
  O8       1.0000 0.73000  0.96400  0.49600  Biso   1.000  O 
  O9       1.0000 0.27000  0.96400  0.50400  Biso   1.000  O 
  O10      1.0000 0.73000  0.51400  0.52000  Biso   1.000  O 
  O11      1.0000 0.51400  0.73000  0.73000  Biso   1.000  O 
  O12      1.0000 0.96400  0.27000  0.74600  Biso   1.000  O 
  O13      1.0000 0.96400  0.73000  0.75400  Biso   1.000  O 
  O14      1.0000 0.51400  0.27000  0.77000  Biso   1.000  O 
  O15      1.0000 0.73000  0.48600  0.98000  Biso   1.000  O 
  O16      1.0000 0.27000  0.03630  0.99600  Biso   1.000  O 
  Ti1      1.0000 0.50000  0.24700  0.00000  Biso   1.000  Ti
  Ti2      1.0000 0.24700  0.50000  0.25000  Biso   1.000  Ti
  Ti3      1.0000 0.50000  0.75300  0.50000  Biso   1.000  Ti
  Ti4      1.0000 0.75300  0.50000  0.75000  Biso   1.000  Ti
