data_image0
_cell_length_a       7.57382
_cell_length_b       7.57382
_cell_length_c       7.57382
_cell_angle_alpha    114.805
_cell_angle_beta     106.872
_cell_angle_gamma    106.872

_symmetry_space_group_name_H-M    "P 1"
_symmetry_int_tables_number       1

loop_
  _symmetry_equiv_pos_as_xyz
  'x, y, z'

loop_
  _atom_site_label
  _atom_site_occupancy
  _atom_site_fract_x
  _atom_site_fract_y
  _atom_site_fract_z
  _atom_site_thermal_displace_type
  _atom_site_B_iso_or_equiv
  _atom_site_type_symbol
  Br1      1.0000 0.56400  0.26100  0.19700  Biso   1.000  Br
  Br2      1.0000 0.93600  0.63300  0.19700  Biso   1.000  Br
  Br3      1.0000 0.06360  0.19700  0.26100  Biso   1.000  Br
  Br4      1.0000 0.56400  0.80300  0.36700  Biso   1.000  Br
  Br5      1.0000 0.43600  0.19700  0.63300  Biso   1.000  Br
  Br6      1.0000 0.93600  0.80300  0.73900  Biso   1.000  Br
  Br7      1.0000 0.06360  0.36700  0.80300  Biso   1.000  Br
  Br8      1.0000 0.43600  0.73900  0.80300  Biso   1.000  Br
  Th1      1.0000 0.25000  0.87500  0.12500  Biso   1.000  Th
  Th2      1.0000 0.75000  0.12500  0.87500  Biso   1.000  Th
