data_image0
_cell_length_a       7.18674
_cell_length_b       7.18674
_cell_length_c       7.5601
_cell_angle_alpha    118.379
_cell_angle_beta     61.6207
_cell_angle_gamma    120

_symmetry_space_group_name_H-M    "P 1"
_symmetry_int_tables_number       1

loop_
  _symmetry_equiv_pos_as_xyz
  'x, y, z'

loop_
  _atom_site_label
  _atom_site_occupancy
  _atom_site_fract_x
  _atom_site_fract_y
  _atom_site_fract_z
  _atom_site_thermal_displace_type
  _atom_site_B_iso_or_equiv
  _atom_site_type_symbol
  Bi1      1.0000 0.65200  0.34800  0.04530  Biso   1.000  Bi
  Bi2      1.0000 0.84800  0.15200  0.45500  Biso   1.000  Bi
  Bi3      1.0000 0.15200  0.84800  0.54500  Biso   1.000  Bi
  Bi4      1.0000 0.34800  0.65200  0.95500  Biso   1.000  Bi
  S1       1.0000 0.25000  0.04240  0.25000  Biso   1.000  S 
  S2       1.0000 0.95800  0.45800  0.25000  Biso   1.000  S 
  S3       1.0000 0.54200  0.75000  0.25000  Biso   1.000  S 
  S4       1.0000 0.45800  0.25000  0.75000  Biso   1.000  S 
  S5       1.0000 0.04240  0.54200  0.75000  Biso   1.000  S 
  S6       1.0000 0.75000  0.95800  0.75000  Biso   1.000  S 
