data_image0
_cell_length_a       9.89905
_cell_length_b       9.89905
_cell_length_c       9.89905
_cell_angle_alpha    109.471
_cell_angle_beta     109.471
_cell_angle_gamma    109.471

_symmetry_space_group_name_H-M    "P 1"
_symmetry_int_tables_number       1

loop_
  _symmetry_equiv_pos_as_xyz
  'x, y, z'

loop_
  _atom_site_label
  _atom_site_occupancy
  _atom_site_fract_x
  _atom_site_fract_y
  _atom_site_fract_z
  _atom_site_thermal_displace_type
  _atom_site_B_iso_or_equiv
  _atom_site_type_symbol
  Al1      1.0000 0.00000  0.00000  0.00000  Biso   1.000  Al
  Al2      1.0000 0.50000  0.00000  0.00000  Biso   1.000  Al
  Al3      1.0000 0.00000  0.50000  0.00000  Biso   1.000  Al
  Al4      1.0000 0.50000  0.50000  0.00000  Biso   1.000  Al
  Al5      1.0000 0.00000  0.00000  0.50000  Biso   1.000  Al
  Al6      1.0000 0.50000  0.00000  0.50000  Biso   1.000  Al
  Al7      1.0000 0.00000  0.50000  0.50000  Biso   1.000  Al
  Al8      1.0000 0.50000  0.50000  0.50000  Biso   1.000  Al
  Mg1      1.0000 0.25000  0.87500  0.12500  Biso   1.000  Mg
  Mg2      1.0000 0.37500  0.25000  0.12500  Biso   1.000  Mg
  Mg3      1.0000 0.87500  0.12500  0.25000  Biso   1.000  Mg
  Mg4      1.0000 0.37500  0.62500  0.25000  Biso   1.000  Mg
  Mg5      1.0000 0.12500  0.75000  0.37500  Biso   1.000  Mg
  Mg6      1.0000 0.75000  0.62500  0.37500  Biso   1.000  Mg
  Mg7      1.0000 0.87500  0.25000  0.62500  Biso   1.000  Mg
  Mg8      1.0000 0.25000  0.37500  0.62500  Biso   1.000  Mg
  Mg9      1.0000 0.12500  0.87500  0.75000  Biso   1.000  Mg
  Mg10     1.0000 0.62500  0.37500  0.75000  Biso   1.000  Mg
  Mg11     1.0000 0.75000  0.12500  0.87500  Biso   1.000  Mg
  Mg12     1.0000 0.62500  0.75000  0.87500  Biso   1.000  Mg
  O1       1.0000 0.31400  0.39900  0.01960  Biso   1.000  O 
  O2       1.0000 0.20500  0.62100  0.01960  Biso   1.000  O 
  O3       1.0000 0.70500  0.18600  0.08450  Biso   1.000  O 
  O4       1.0000 0.87900  0.89900  0.08450  Biso   1.000  O 
  O5       1.0000 0.98000  0.18600  0.10100  Biso   1.000  O 
  O6       1.0000 0.62100  0.91500  0.10100  Biso   1.000  O 
  O7       1.0000 0.01960  0.70500  0.12100  Biso   1.000  O 
  O8       1.0000 0.60100  0.41500  0.12100  Biso   1.000  O 
  O9       1.0000 0.20500  0.08450  0.18600  Biso   1.000  O 
  O10      1.0000 0.48000  0.10100  0.18600  Biso   1.000  O 
  O11      1.0000 0.58500  0.68600  0.20500  Biso   1.000  O 
  O12      1.0000 0.12100  0.52000  0.20500  Biso   1.000  O 
  O13      1.0000 0.48000  0.87900  0.29500  Biso   1.000  O 
  O14      1.0000 0.31400  0.41500  0.29500  Biso   1.000  O 
  O15      1.0000 0.89900  0.52000  0.31400  Biso   1.000  O 
  O16      1.0000 0.91500  0.79500  0.31400  Biso   1.000  O 
  O17      1.0000 0.58500  0.39900  0.37900  Biso   1.000  O 
  O18      1.0000 0.29500  0.98000  0.37900  Biso   1.000  O 
  O19      1.0000 0.08450  0.37900  0.39900  Biso   1.000  O 
  O20      1.0000 0.81400  0.01960  0.39900  Biso   1.000  O 
  O21      1.0000 0.10100  0.12100  0.41500  Biso   1.000  O 
  O22      1.0000 0.81400  0.29500  0.41500  Biso   1.000  O 
  O23      1.0000 0.37900  0.79500  0.48000  Biso   1.000  O 
  O24      1.0000 0.60100  0.68600  0.48000  Biso   1.000  O 
  O25      1.0000 0.62100  0.20500  0.52000  Biso   1.000  O 
  O26      1.0000 0.39900  0.31400  0.52000  Biso   1.000  O 
  O27      1.0000 0.18600  0.70500  0.58500  Biso   1.000  O 
  O28      1.0000 0.89900  0.87900  0.58500  Biso   1.000  O 
  O29      1.0000 0.91500  0.62100  0.60100  Biso   1.000  O 
  O30      1.0000 0.18600  0.98000  0.60100  Biso   1.000  O 
  O31      1.0000 0.70500  0.01960  0.62100  Biso   1.000  O 
  O32      1.0000 0.41500  0.60100  0.62100  Biso   1.000  O 
  O33      1.0000 0.08450  0.20500  0.68600  Biso   1.000  O 
  O34      1.0000 0.10100  0.48000  0.68600  Biso   1.000  O 
  O35      1.0000 0.52000  0.12100  0.70500  Biso   1.000  O 
  O36      1.0000 0.68600  0.58500  0.70500  Biso   1.000  O 
  O37      1.0000 0.41500  0.31400  0.79500  Biso   1.000  O 
  O38      1.0000 0.87900  0.48000  0.79500  Biso   1.000  O 
  O39      1.0000 0.52000  0.89900  0.81400  Biso   1.000  O 
  O40      1.0000 0.79500  0.91500  0.81400  Biso   1.000  O 
  O41      1.0000 0.98000  0.29500  0.87900  Biso   1.000  O 
  O42      1.0000 0.39900  0.58500  0.87900  Biso   1.000  O 
  O43      1.0000 0.01960  0.81400  0.89900  Biso   1.000  O 
  O44      1.0000 0.37900  0.08450  0.89900  Biso   1.000  O 
  O45      1.0000 0.12100  0.10100  0.91500  Biso   1.000  O 
  O46      1.0000 0.29500  0.81400  0.91500  Biso   1.000  O 
  O47      1.0000 0.79500  0.37900  0.98000  Biso   1.000  O 
  O48      1.0000 0.68600  0.60100  0.98000  Biso   1.000  O 
  Si1      1.0000 0.75000  0.37500  0.12500  Biso   1.000  Si
  Si2      1.0000 0.87500  0.75000  0.12500  Biso   1.000  Si
  Si3      1.0000 0.12500  0.37500  0.25000  Biso   1.000  Si
  Si4      1.0000 0.62500  0.87500  0.25000  Biso   1.000  Si
  Si5      1.0000 0.62500  0.25000  0.37500  Biso   1.000  Si
  Si6      1.0000 0.25000  0.12500  0.37500  Biso   1.000  Si
  Si7      1.0000 0.75000  0.87500  0.62500  Biso   1.000  Si
  Si8      1.0000 0.37500  0.75000  0.62500  Biso   1.000  Si
  Si9      1.0000 0.37500  0.12500  0.75000  Biso   1.000  Si
  Si10     1.0000 0.87500  0.62500  0.75000  Biso   1.000  Si
  Si11     1.0000 0.12500  0.25000  0.87500  Biso   1.000  Si
  Si12     1.0000 0.25000  0.62500  0.87500  Biso   1.000  Si
