data_image0
_cell_length_a       7.02827
_cell_length_b       7.34965
_cell_length_c       6.69009
_cell_angle_alpha    90
_cell_angle_beta     103.069
_cell_angle_gamma    90

_symmetry_space_group_name_H-M    "P 1"
_symmetry_int_tables_number       1

loop_
  _symmetry_equiv_pos_as_xyz
  'x, y, z'

loop_
  _atom_site_label
  _atom_site_occupancy
  _atom_site_fract_x
  _atom_site_fract_y
  _atom_site_fract_z
  _atom_site_thermal_displace_type
  _atom_site_B_iso_or_equiv
  _atom_site_type_symbol
  Cr1      1.0000 0.80200  0.83500  0.11300  Biso   1.000  Cr
  Cr2      1.0000 0.69800  0.33500  0.38700  Biso   1.000  Cr
  Cr3      1.0000 0.30200  0.66500  0.61300  Biso   1.000  Cr
  Cr4      1.0000 0.19800  0.16500  0.88700  Biso   1.000  Cr
  O1       1.0000 0.11800  0.34000  0.00325  Biso   1.000  O 
  O2       1.0000 0.26000  0.00187  0.06130  Biso   1.000  O 
  O3       1.0000 0.52100  0.39900  0.19200  Biso   1.000  O 
  O4       1.0000 0.61800  0.77900  0.21600  Biso   1.000  O 
  O5       1.0000 0.88200  0.27900  0.28400  Biso   1.000  O 
  O6       1.0000 0.97900  0.89900  0.30800  Biso   1.000  O 
  O7       1.0000 0.24000  0.50200  0.43900  Biso   1.000  O 
  O8       1.0000 0.38200  0.84000  0.49700  Biso   1.000  O 
  O9       1.0000 0.61800  0.16000  0.50300  Biso   1.000  O 
  O10      1.0000 0.76000  0.49800  0.56100  Biso   1.000  O 
  O11      1.0000 0.02100  0.10100  0.69200  Biso   1.000  O 
  O12      1.0000 0.11800  0.72100  0.71600  Biso   1.000  O 
  O13      1.0000 0.38200  0.22100  0.78400  Biso   1.000  O 
  O14      1.0000 0.47900  0.60100  0.80800  Biso   1.000  O 
  O15      1.0000 0.74000  0.99800  0.93900  Biso   1.000  O 
  O16      1.0000 0.88200  0.66000  0.99700  Biso   1.000  O 
  Sr1      1.0000 0.27100  0.65800  0.10100  Biso   1.000  Sr
  Sr2      1.0000 0.22900  0.15800  0.39900  Biso   1.000  Sr
  Sr3      1.0000 0.77100  0.84200  0.60100  Biso   1.000  Sr
  Sr4      1.0000 0.72900  0.34200  0.89900  Biso   1.000  Sr
