data_image0
_cell_length_a       3.56216
_cell_length_b       3.56216
_cell_length_c       6.33506
_cell_angle_alpha    106.329
_cell_angle_beta     106.329
_cell_angle_gamma    90

_symmetry_space_group_name_H-M    "P 1"
_symmetry_int_tables_number       1

loop_
  _symmetry_equiv_pos_as_xyz
  'x, y, z'

loop_
  _atom_site_label
  _atom_site_occupancy
  _atom_site_fract_x
  _atom_site_fract_y
  _atom_site_fract_z
  _atom_site_thermal_displace_type
  _atom_site_B_iso_or_equiv
  _atom_site_type_symbol
  Ca1      1.0000 0.64700  0.64700  0.29400  Biso   1.000  Ca
  Ca2      1.0000 0.35300  0.35300  0.70600  Biso   1.000  Ca
  O1       1.0000 0.50000  0.00000  0.00000  Biso   1.000  O 
  O2       1.0000 0.00000  0.50000  0.00000  Biso   1.000  O 
  O3       1.0000 0.15600  0.15600  0.31300  Biso   1.000  O 
  O4       1.0000 0.84400  0.84400  0.68700  Biso   1.000  O 
  Si1      1.0000 0.00000  0.00000  0.00000  Biso   1.000  Si
