data_image0
_cell_length_a       4.65067
_cell_length_b       5.36181
_cell_length_c       5.3877
_cell_angle_alpha    119.841
_cell_angle_beta     90
_cell_angle_gamma    90

_symmetry_space_group_name_H-M    "P 1"
_symmetry_int_tables_number       1

loop_
  _symmetry_equiv_pos_as_xyz
  'x, y, z'

loop_
  _atom_site_label
  _atom_site_occupancy
  _atom_site_fract_x
  _atom_site_fract_y
  _atom_site_fract_z
  _atom_site_thermal_displace_type
  _atom_site_B_iso_or_equiv
  _atom_site_type_symbol
  Li1      1.0000 0.50600  0.51500  0.34500  Biso   1.000  Li
  Li2      1.0000 0.00610  0.83100  0.34500  Biso   1.000  Li
  Li3      1.0000 0.50600  0.16900  0.65500  Biso   1.000  Li
  Li4      1.0000 0.00610  0.48500  0.65500  Biso   1.000  Li
  O1       1.0000 0.64700  0.11900  0.00000  Biso   1.000  O 
  O2       1.0000 0.14700  0.88100  0.00000  Biso   1.000  O 
  O3       1.0000 0.09070  0.45700  0.29200  Biso   1.000  O 
  O4       1.0000 0.59100  0.83500  0.29200  Biso   1.000  O 
  O5       1.0000 0.09070  0.16500  0.70800  Biso   1.000  O 
  O6       1.0000 0.59100  0.54300  0.70800  Biso   1.000  O 
  Si1      1.0000 0.00568  0.17300  0.00000  Biso   1.000  Si
  Si2      1.0000 0.50600  0.82700  0.00000  Biso   1.000  Si
