data_image0
_cell_length_a       5.12665
_cell_length_b       5.12669
_cell_length_c       8.74716
_cell_angle_alpha    90
_cell_angle_beta     90
_cell_angle_gamma    120

_symmetry_space_group_name_H-M    "P 1"
_symmetry_int_tables_number       1

loop_
  _symmetry_equiv_pos_as_xyz
  'x, y, z'

loop_
  _atom_site_label
  _atom_site_occupancy
  _atom_site_fract_x
  _atom_site_fract_y
  _atom_site_fract_z
  _atom_site_thermal_displace_type
  _atom_site_B_iso_or_equiv
  _atom_site_type_symbol
  Al1      1.0000 0.33300  0.66700  0.04850  Biso   1.000  Al
  Al2      1.0000 0.66700  0.33300  0.54800  Biso   1.000  Al
  K1       1.0000 0.00001  0.00000  0.24300  Biso   1.000  K 
  K2       1.0000 0.00000  0.00000  0.74300  Biso   1.000  K 
  O1       1.0000 0.33300  0.66700  0.24700  Biso   1.000  O 
  O2       1.0000 0.01490  0.38300  0.49000  Biso   1.000  O 
  O3       1.0000 0.36800  0.98500  0.49000  Biso   1.000  O 
  O4       1.0000 0.61700  0.63200  0.49000  Biso   1.000  O 
  O5       1.0000 0.66700  0.33300  0.74700  Biso   1.000  O 
  O6       1.0000 0.98500  0.61700  0.99000  Biso   1.000  O 
  O7       1.0000 0.63200  0.01490  0.99000  Biso   1.000  O 
  O8       1.0000 0.38300  0.36800  0.99000  Biso   1.000  O 
  Si1      1.0000 0.33300  0.66700  0.43200  Biso   1.000  Si
  Si2      1.0000 0.66700  0.33300  0.93200  Biso   1.000  Si
