data_image0
_cell_length_a       4.29727
_cell_length_b       4.94731
_cell_length_c       7.63347
_cell_angle_alpha    90
_cell_angle_beta     90
_cell_angle_gamma    90

_symmetry_space_group_name_H-M    "P 1"
_symmetry_int_tables_number       1

loop_
  _symmetry_equiv_pos_as_xyz
  'x, y, z'

loop_
  _atom_site_label
  _atom_site_occupancy
  _atom_site_fract_x
  _atom_site_fract_y
  _atom_site_fract_z
  _atom_site_thermal_displace_type
  _atom_site_B_iso_or_equiv
  _atom_site_type_symbol
  F1       1.0000 0.46300  0.40200  0.04310  Biso   1.000  F 
  F2       1.0000 0.92500  0.71900  0.20200  Biso   1.000  F 
  F3       1.0000 0.07530  0.21900  0.29800  Biso   1.000  F 
  F4       1.0000 0.53700  0.90200  0.45700  Biso   1.000  F 
  F5       1.0000 0.03750  0.59800  0.54300  Biso   1.000  F 
  F6       1.0000 0.57500  0.28100  0.70200  Biso   1.000  F 
  F7       1.0000 0.42500  0.78100  0.79800  Biso   1.000  F 
  F8       1.0000 0.96300  0.09840  0.95700  Biso   1.000  F 
  Ge1      1.0000 0.28000  0.99700  0.12300  Biso   1.000  Ge
  Ge2      1.0000 0.72000  0.49700  0.37700  Biso   1.000  Ge
  Ge3      1.0000 0.22000  0.00283  0.62300  Biso   1.000  Ge
  Ge4      1.0000 0.78000  0.50300  0.87700  Biso   1.000  Ge
