data_image0
_cell_length_a       2.87665
_cell_length_b       2.87668
_cell_length_c       4.50363
_cell_angle_alpha    90
_cell_angle_beta     90.0015
_cell_angle_gamma    120

_symmetry_space_group_name_H-M    "P 1"
_symmetry_int_tables_number       1

loop_
  _symmetry_equiv_pos_as_xyz
  'x, y, z'

loop_
  _atom_site_label
  _atom_site_occupancy
  _atom_site_fract_x
  _atom_site_fract_y
  _atom_site_fract_z
  _atom_site_thermal_displace_type
  _atom_site_B_iso_or_equiv
  _atom_site_type_symbol
  H1       1.0000 0.66700  0.33300  0.54700  Biso   1.000  H 
  Ni1      1.0000 0.00002  0.00001  0.99500  Biso   1.000  Ni
  O1       1.0000 0.33300  0.66700  0.22200  Biso   1.000  O 
  O2       1.0000 0.66700  0.33300  0.76600  Biso   1.000  O 
