data_image0
_cell_length_a       6.65303
_cell_length_b       6.65277
_cell_length_c       6.81262
_cell_angle_alpha    90.0136
_cell_angle_beta     90.0008
_cell_angle_gamma    120.034

_symmetry_space_group_name_H-M    "P 1"
_symmetry_int_tables_number       1

loop_
  _symmetry_equiv_pos_as_xyz
  'x, y, z'

loop_
  _atom_site_label
  _atom_site_occupancy
  _atom_site_fract_x
  _atom_site_fract_y
  _atom_site_fract_z
  _atom_site_thermal_displace_type
  _atom_site_B_iso_or_equiv
  _atom_site_type_symbol
  F1       1.0000 0.00000  0.99900  0.75000  Biso   1.000  F 
  F2       1.0000 0.00000  0.00059  0.24800  Biso   1.000  F 
  F3       1.0000 0.33300  0.66700  0.46700  Biso   1.000  F 
  F4       1.0000 0.66700  0.33300  0.96500  Biso   1.000  F 
  F5       1.0000 0.66700  0.33300  0.53200  Biso   1.000  F 
  F6       1.0000 0.33300  0.66700  0.03430  Biso   1.000  F 
  F7       1.0000 0.66000  0.01090  0.33600  Biso   1.000  F 
  F8       1.0000 0.35100  0.34000  0.33700  Biso   1.000  F 
  F9       1.0000 0.98900  0.65000  0.33700  Biso   1.000  F 
  F10      1.0000 0.01250  0.35100  0.83700  Biso   1.000  F 
  F11      1.0000 0.64800  0.66100  0.83700  Biso   1.000  F 
  F12      1.0000 0.33900  0.98700  0.83700  Biso   1.000  F 
  F13      1.0000 0.01150  0.65800  0.66400  Biso   1.000  F 
  F14      1.0000 0.34000  0.35100  0.66400  Biso   1.000  F 
  F15      1.0000 0.66000  0.64700  0.16400  Biso   1.000  F 
  F16      1.0000 0.98700  0.34100  0.16400  Biso   1.000  F 
  F17      1.0000 0.64800  0.98900  0.66400  Biso   1.000  F 
  F18      1.0000 0.35300  0.01320  0.16400  Biso   1.000  F 
  Nd1      1.0000 0.32000  0.00000  0.50000  Biso   1.000  Nd
  Nd2      1.0000 0.00000  0.32000  0.50000  Biso   1.000  Nd
  Nd3      1.0000 0.00006  0.68000  0.00013  Biso   1.000  Nd
  Nd4      1.0000 0.68000  0.00017  0.00011  Biso   1.000  Nd
  Nd5      1.0000 0.68000  0.68000  0.50000  Biso   1.000  Nd
  Nd6      1.0000 0.32000  0.32000  0.00020  Biso   1.000  Nd
