data_image0
_cell_length_a       2.79891
_cell_length_b       2.79891
_cell_length_c       4.98426
_cell_angle_alpha    73.6935
_cell_angle_beta     106.306
_cell_angle_gamma    120

_symmetry_space_group_name_H-M    "P 1"
_symmetry_int_tables_number       1

loop_
  _symmetry_equiv_pos_as_xyz
  'x, y, z'

loop_
  _atom_site_label
  _atom_site_occupancy
  _atom_site_fract_x
  _atom_site_fract_y
  _atom_site_fract_z
  _atom_site_thermal_displace_type
  _atom_site_B_iso_or_equiv
  _atom_site_type_symbol
  Al1      1.0000 0.50000  0.50000  0.50000  Biso   1.000  Al
  Li1      1.0000 0.00000  0.00000  0.00000  Biso   1.000  Li
  O1       1.0000 0.76100  0.23900  0.28200  Biso   1.000  O 
  O2       1.0000 0.23900  0.76100  0.71800  Biso   1.000  O 
