data_image0
_cell_length_a       7.57417
_cell_length_b       7.58153
_cell_length_c       7.58153
_cell_angle_alpha    99.6267
_cell_angle_beta     117.035
_cell_angle_gamma    62.9652

_symmetry_space_group_name_H-M    "P 1"
_symmetry_int_tables_number       1

loop_
  _symmetry_equiv_pos_as_xyz
  'x, y, z'

loop_
  _atom_site_label
  _atom_site_occupancy
  _atom_site_fract_x
  _atom_site_fract_y
  _atom_site_fract_z
  _atom_site_thermal_displace_type
  _atom_site_B_iso_or_equiv
  _atom_site_type_symbol
  F1       1.0000 0.00000  0.50000  0.00000  Biso   1.000  F 
  F2       1.0000 0.85600  0.27600  0.03470  Biso   1.000  F 
  F3       1.0000 0.45100  0.83800  0.06490  Biso   1.000  F 
  F4       1.0000 0.95100  0.93500  0.16200  Biso   1.000  F 
  F5       1.0000 0.42300  0.40100  0.17500  Biso   1.000  F 
  F6       1.0000 0.89100  0.68300  0.25500  Biso   1.000  F 
  F7       1.0000 0.71700  0.49800  0.26100  Biso   1.000  F 
  F8       1.0000 0.64400  0.03470  0.27600  Biso   1.000  F 
  F9       1.0000 0.39100  0.74500  0.31700  Biso   1.000  F 
  F10      1.0000 0.25000  0.38800  0.38800  Biso   1.000  F 
  F11      1.0000 0.07730  0.17500  0.40100  Biso   1.000  F 
  F12      1.0000 0.78300  0.26100  0.49800  Biso   1.000  F 
  F13      1.0000 0.50000  0.00000  0.50000  Biso   1.000  F 
  F14      1.0000 0.21700  0.73900  0.50200  Biso   1.000  F 
  F15      1.0000 0.92300  0.82500  0.59900  Biso   1.000  F 
  F16      1.0000 0.75000  0.61200  0.61200  Biso   1.000  F 
  F17      1.0000 0.60900  0.25500  0.68300  Biso   1.000  F 
  F18      1.0000 0.35600  0.96500  0.72400  Biso   1.000  F 
  F19      1.0000 0.28300  0.50200  0.73900  Biso   1.000  F 
  F20      1.0000 0.10900  0.31700  0.74500  Biso   1.000  F 
  F21      1.0000 0.57700  0.59900  0.82500  Biso   1.000  F 
  F22      1.0000 0.04870  0.06490  0.83800  Biso   1.000  F 
  F23      1.0000 0.54900  0.16200  0.93500  Biso   1.000  F 
  F24      1.0000 0.14400  0.72400  0.96500  Biso   1.000  F 
  Hf1      1.0000 0.75000  0.21300  0.21300  Biso   1.000  Hf
  Hf2      1.0000 0.16600  0.63400  0.22200  Biso   1.000  Hf
  Hf3      1.0000 0.66600  0.77800  0.36600  Biso   1.000  Hf
  Hf4      1.0000 0.33400  0.22200  0.63400  Biso   1.000  Hf
  Hf5      1.0000 0.83400  0.36600  0.77800  Biso   1.000  Hf
  Hf6      1.0000 0.25000  0.78700  0.78700  Biso   1.000  Hf
