data_image0
_cell_length_a       3.83637
_cell_length_b       3.85398
_cell_length_c       3.85398
_cell_angle_alpha    86.2832
_cell_angle_beta     93.5091
_cell_angle_gamma    93.5091

_symmetry_space_group_name_H-M    "P 1"
_symmetry_int_tables_number       1

loop_
  _symmetry_equiv_pos_as_xyz
  'x, y, z'

loop_
  _atom_site_label
  _atom_site_occupancy
  _atom_site_fract_x
  _atom_site_fract_y
  _atom_site_fract_z
  _atom_site_thermal_displace_type
  _atom_site_B_iso_or_equiv
  _atom_site_type_symbol
  C1       1.0000 0.37600  0.57500  0.57500  Biso   1.000  C 
  K1       1.0000 0.98400  0.00578  0.00578  Biso   1.000  K 
  N1       1.0000 0.54900  0.41000  0.41000  Biso   1.000  N 
