data_image0
_cell_length_a       10.8063
_cell_length_b       7.18589
_cell_length_c       10.9584
_cell_angle_alpha    90
_cell_angle_beta     102.755
_cell_angle_gamma    90

_symmetry_space_group_name_H-M    "P 1"
_symmetry_int_tables_number       1

loop_
  _symmetry_equiv_pos_as_xyz
  'x, y, z'

loop_
  _atom_site_label
  _atom_site_occupancy
  _atom_site_fract_x
  _atom_site_fract_y
  _atom_site_fract_z
  _atom_site_thermal_displace_type
  _atom_site_B_iso_or_equiv
  _atom_site_type_symbol
  Br1      1.0000 0.69800  0.92200  0.02890  Biso   1.000  Br
  Br2      1.0000 0.19400  0.62300  0.08590  Biso   1.000  Br
  Br3      1.0000 0.57400  0.43000  0.19500  Biso   1.000  Br
  Br4      1.0000 0.08500  0.07720  0.19700  Biso   1.000  Br
  Br5      1.0000 0.91500  0.57700  0.30300  Biso   1.000  Br
  Br6      1.0000 0.42600  0.93000  0.30500  Biso   1.000  Br
  Br7      1.0000 0.80600  0.12300  0.41400  Biso   1.000  Br
  Br8      1.0000 0.30200  0.42200  0.47100  Biso   1.000  Br
  Br9      1.0000 0.69800  0.57800  0.52900  Biso   1.000  Br
  Br10     1.0000 0.19400  0.87700  0.58600  Biso   1.000  Br
  Br11     1.0000 0.57400  0.07030  0.69500  Biso   1.000  Br
  Br12     1.0000 0.08500  0.42300  0.69700  Biso   1.000  Br
  Br13     1.0000 0.91500  0.92300  0.80300  Biso   1.000  Br
  Br14     1.0000 0.42600  0.57000  0.80500  Biso   1.000  Br
  Br15     1.0000 0.80600  0.37700  0.91400  Biso   1.000  Br
  Br16     1.0000 0.30200  0.07760  0.97100  Biso   1.000  Br
  Ge1      1.0000 0.25200  0.92600  0.14000  Biso   1.000  Ge
  Ge2      1.0000 0.74800  0.42600  0.36000  Biso   1.000  Ge
  Ge3      1.0000 0.25200  0.57400  0.64000  Biso   1.000  Ge
  Ge4      1.0000 0.74800  0.07380  0.86000  Biso   1.000  Ge
