data_image0
_cell_length_a       5.32648
_cell_length_b       10.4108
_cell_length_c       5.11727
_cell_angle_alpha    90
_cell_angle_beta     90
_cell_angle_gamma    90

_symmetry_space_group_name_H-M    "P 1"
_symmetry_int_tables_number       1

loop_
  _symmetry_equiv_pos_as_xyz
  'x, y, z'

loop_
  _atom_site_label
  _atom_site_occupancy
  _atom_site_fract_x
  _atom_site_fract_y
  _atom_site_fract_z
  _atom_site_thermal_displace_type
  _atom_site_B_iso_or_equiv
  _atom_site_type_symbol
  H1       1.0000 0.75000  0.50600  0.06730  Biso   1.000  H 
  H2       1.0000 0.25000  0.97700  0.24800  Biso   1.000  H 
  H3       1.0000 0.25000  0.47700  0.25200  Biso   1.000  H 
  H4       1.0000 0.75000  0.00622  0.43300  Biso   1.000  H 
  H5       1.0000 0.25000  0.99400  0.56700  Biso   1.000  H 
  H6       1.0000 0.75000  0.52300  0.74800  Biso   1.000  H 
  H7       1.0000 0.75000  0.02300  0.75200  Biso   1.000  H 
  H8       1.0000 0.25000  0.49400  0.93300  Biso   1.000  H 
  O1       1.0000 0.25000  0.43300  0.08180  Biso   1.000  O 
  O2       1.0000 0.75000  0.94200  0.10400  Biso   1.000  O 
  O3       1.0000 0.50300  0.21500  0.24400  Biso   1.000  O 
  O4       1.0000 0.99700  0.21500  0.24400  Biso   1.000  O 
  O5       1.0000 0.50300  0.71500  0.25600  Biso   1.000  O 
  O6       1.0000 0.99700  0.71500  0.25600  Biso   1.000  O 
  O7       1.0000 0.75000  0.44200  0.39600  Biso   1.000  O 
  O8       1.0000 0.25000  0.93300  0.41800  Biso   1.000  O 
  O9       1.0000 0.75000  0.06650  0.58200  Biso   1.000  O 
  O10      1.0000 0.25000  0.55800  0.60400  Biso   1.000  O 
  O11      1.0000 0.00299  0.28500  0.74400  Biso   1.000  O 
  O12      1.0000 0.49700  0.28500  0.74400  Biso   1.000  O 
  O13      1.0000 0.00299  0.78500  0.75600  Biso   1.000  O 
  O14      1.0000 0.49700  0.78500  0.75600  Biso   1.000  O 
  O15      1.0000 0.25000  0.05820  0.89600  Biso   1.000  O 
  O16      1.0000 0.75000  0.56700  0.91800  Biso   1.000  O 
  W1       1.0000 0.75000  0.78000  0.00895  Biso   1.000  W 
  W2       1.0000 0.75000  0.28000  0.49100  Biso   1.000  W 
  W3       1.0000 0.25000  0.72000  0.50900  Biso   1.000  W 
  W4       1.0000 0.25000  0.22000  0.99100  Biso   1.000  W 
