data_image0
_cell_length_a       4.7647
_cell_length_b       8.09651
_cell_length_c       9.65864
_cell_angle_alpha    90
_cell_angle_beta     90
_cell_angle_gamma    90

_symmetry_space_group_name_H-M    "P 1"
_symmetry_int_tables_number       1

loop_
  _symmetry_equiv_pos_as_xyz
  'x, y, z'

loop_
  _atom_site_label
  _atom_site_occupancy
  _atom_site_fract_x
  _atom_site_fract_y
  _atom_site_fract_z
  _atom_site_thermal_displace_type
  _atom_site_B_iso_or_equiv
  _atom_site_type_symbol
  Br1      1.0000 0.25000  0.85800  0.08020  Biso   1.000  Br
  Br2      1.0000 0.75000  0.51500  0.16100  Biso   1.000  Br
  Br3      1.0000 0.75000  0.01550  0.33900  Biso   1.000  Br
  Br4      1.0000 0.25000  0.35800  0.42000  Biso   1.000  Br
  Br5      1.0000 0.75000  0.64200  0.58000  Biso   1.000  Br
  Br6      1.0000 0.25000  0.98500  0.66100  Biso   1.000  Br
  Br7      1.0000 0.25000  0.48500  0.83900  Biso   1.000  Br
  Br8      1.0000 0.75000  0.14200  0.92000  Biso   1.000  Br
  Pb1      1.0000 0.25000  0.26800  0.08760  Biso   1.000  Pb
  Pb2      1.0000 0.25000  0.76800  0.41200  Biso   1.000  Pb
  Pb3      1.0000 0.75000  0.23200  0.58800  Biso   1.000  Pb
  Pb4      1.0000 0.75000  0.73200  0.91200  Biso   1.000  Pb
