data_image0
_cell_length_a       4.05192
_cell_length_b       4.05192
_cell_length_c       8.81261
_cell_angle_alpha    103.291
_cell_angle_beta     76.7092
_cell_angle_gamma    120

_symmetry_space_group_name_H-M    "P 1"
_symmetry_int_tables_number       1

loop_
  _symmetry_equiv_pos_as_xyz
  'x, y, z'

loop_
  _atom_site_label
  _atom_site_occupancy
  _atom_site_fract_x
  _atom_site_fract_y
  _atom_site_fract_z
  _atom_site_thermal_displace_type
  _atom_site_B_iso_or_equiv
  _atom_site_type_symbol
  In1      1.0000 0.00000  0.00043  0.00128  Biso   1.000  In
  In2      1.0000 0.88900  0.11100  0.33300  Biso   1.000  In
  Se1      1.0000 0.17200  0.82800  0.48500  Biso   1.000  Se
  Se2      1.0000 0.38400  0.61600  0.84900  Biso   1.000  Se
