data_image0
_cell_length_a       10.5864
_cell_length_b       8.58647
_cell_length_c       4.24865
_cell_angle_alpha    90
_cell_angle_beta     90
_cell_angle_gamma    90

_symmetry_space_group_name_H-M    "P 1"
_symmetry_int_tables_number       1

loop_
  _symmetry_equiv_pos_as_xyz
  'x, y, z'

loop_
  _atom_site_label
  _atom_site_occupancy
  _atom_site_fract_x
  _atom_site_fract_y
  _atom_site_fract_z
  _atom_site_thermal_displace_type
  _atom_site_B_iso_or_equiv
  _atom_site_type_symbol
  Br1      1.0000 0.04930  0.16800  0.25000  Biso   1.000  Br
  Br2      1.0000 0.81600  0.48800  0.25000  Biso   1.000  Br
  Br3      1.0000 0.45100  0.66800  0.25000  Biso   1.000  Br
  Br4      1.0000 0.68400  0.98800  0.25000  Biso   1.000  Br
  Br5      1.0000 0.31600  0.01190  0.75000  Biso   1.000  Br
  Br6      1.0000 0.54900  0.33200  0.75000  Biso   1.000  Br
  Br7      1.0000 0.18400  0.51200  0.75000  Biso   1.000  Br
  Br8      1.0000 0.95100  0.83200  0.75000  Biso   1.000  Br
  Sn1      1.0000 0.33300  0.37400  0.25000  Biso   1.000  Sn
  Sn2      1.0000 0.16700  0.87400  0.25000  Biso   1.000  Sn
  Sn3      1.0000 0.83300  0.12600  0.75000  Biso   1.000  Sn
  Sn4      1.0000 0.66700  0.62600  0.75000  Biso   1.000  Sn
