data_image0
_cell_length_a       6.9709
_cell_length_b       6.14426
_cell_length_c       6.29441
_cell_angle_alpha    90
_cell_angle_beta     88.1925
_cell_angle_gamma    116.149

_symmetry_space_group_name_H-M    "P 1"
_symmetry_int_tables_number       1

loop_
  _symmetry_equiv_pos_as_xyz
  'x, y, z'

loop_
  _atom_site_label
  _atom_site_occupancy
  _atom_site_fract_x
  _atom_site_fract_y
  _atom_site_fract_z
  _atom_site_thermal_displace_type
  _atom_site_B_iso_or_equiv
  _atom_site_type_symbol
  K1       1.0000 0.00000  0.00000  0.00000  Biso   1.000  K 
  K2       1.0000 0.50500  0.25200  0.17500  Biso   1.000  K 
  K3       1.0000 0.00000  0.00000  0.50000  Biso   1.000  K 
  K4       1.0000 0.49500  0.74800  0.82500  Biso   1.000  K 
  O1       1.0000 0.19800  0.79600  0.18300  Biso   1.000  O 
  O2       1.0000 0.19800  0.40100  0.18300  Biso   1.000  O 
  O3       1.0000 0.67900  0.83900  0.23200  Biso   1.000  O 
  O4       1.0000 0.87800  0.43900  0.31400  Biso   1.000  O 
  O5       1.0000 0.12200  0.56100  0.68600  Biso   1.000  O 
  O6       1.0000 0.32100  0.16100  0.76800  Biso   1.000  O 
  O7       1.0000 0.80200  0.59900  0.81700  Biso   1.000  O 
  O8       1.0000 0.80200  0.20400  0.81700  Biso   1.000  O 
  S1       1.0000 0.06620  0.53300  0.17200  Biso   1.000  S 
  S2       1.0000 0.93400  0.46700  0.82800  Biso   1.000  S 
