data_image0
_cell_length_a       8.00177
_cell_length_b       8.00177
_cell_length_c       8.00177
_cell_angle_alpha    107.549
_cell_angle_beta     107.549
_cell_angle_gamma    107.549

_symmetry_space_group_name_H-M    "P 1"
_symmetry_int_tables_number       1

loop_
  _symmetry_equiv_pos_as_xyz
  'x, y, z'

loop_
  _atom_site_label
  _atom_site_occupancy
  _atom_site_fract_x
  _atom_site_fract_y
  _atom_site_fract_z
  _atom_site_thermal_displace_type
  _atom_site_B_iso_or_equiv
  _atom_site_type_symbol
  Be1      1.0000 0.23200  0.46400  0.05520  Biso   1.000  Be
  Be2      1.0000 0.46400  0.05520  0.23200  Biso   1.000  Be
  Be3      1.0000 0.05520  0.23200  0.46400  Biso   1.000  Be
  Be4      1.0000 0.94500  0.76800  0.53600  Biso   1.000  Be
  Be5      1.0000 0.53600  0.94500  0.76800  Biso   1.000  Be
  Be6      1.0000 0.76800  0.53600  0.94500  Biso   1.000  Be
  F1       1.0000 0.97200  0.69700  0.01950  Biso   1.000  F 
  F2       1.0000 0.30300  0.98100  0.02790  Biso   1.000  F 
  F3       1.0000 0.36800  0.36400  0.03530  Biso   1.000  F 
  F4       1.0000 0.76400  0.42500  0.07210  Biso   1.000  F 
  F5       1.0000 0.57500  0.92800  0.23600  Biso   1.000  F 
  F6       1.0000 0.30800  0.60600  0.27000  Biso   1.000  F 
  F7       1.0000 0.98100  0.02790  0.30300  Biso   1.000  F 
  F8       1.0000 0.60600  0.27000  0.30800  Biso   1.000  F 
  F9       1.0000 0.03530  0.36800  0.36400  Biso   1.000  F 
  F10      1.0000 0.36400  0.03530  0.36800  Biso   1.000  F 
  F11      1.0000 0.73000  0.69200  0.39400  Biso   1.000  F 
  F12      1.0000 0.07210  0.76400  0.42500  Biso   1.000  F 
  F13      1.0000 0.92800  0.23600  0.57500  Biso   1.000  F 
  F14      1.0000 0.27000  0.30800  0.60600  Biso   1.000  F 
  F15      1.0000 0.63600  0.96500  0.63200  Biso   1.000  F 
  F16      1.0000 0.96500  0.63200  0.63600  Biso   1.000  F 
  F17      1.0000 0.39400  0.73000  0.69200  Biso   1.000  F 
  F18      1.0000 0.01950  0.97200  0.69700  Biso   1.000  F 
  F19      1.0000 0.69200  0.39400  0.73000  Biso   1.000  F 
  F20      1.0000 0.42500  0.07210  0.76400  Biso   1.000  F 
  F21      1.0000 0.23600  0.57500  0.92800  Biso   1.000  F 
  F22      1.0000 0.63200  0.63600  0.96500  Biso   1.000  F 
  F23      1.0000 0.69700  0.01950  0.97200  Biso   1.000  F 
  F24      1.0000 0.02790  0.30300  0.98100  Biso   1.000  F 
  Li1      1.0000 0.87900  0.26900  0.10900  Biso   1.000  Li
  Li2      1.0000 0.73100  0.89100  0.12100  Biso   1.000  Li
  Li3      1.0000 0.61500  0.44400  0.20300  Biso   1.000  Li
  Li4      1.0000 0.10900  0.87900  0.26900  Biso   1.000  Li
  Li5      1.0000 0.55600  0.79700  0.38500  Biso   1.000  Li
  Li6      1.0000 0.20300  0.61500  0.44400  Biso   1.000  Li
  Li7      1.0000 0.79700  0.38500  0.55600  Biso   1.000  Li
  Li8      1.0000 0.44400  0.20300  0.61500  Biso   1.000  Li
  Li9      1.0000 0.89100  0.12100  0.73100  Biso   1.000  Li
  Li10     1.0000 0.38500  0.55600  0.79700  Biso   1.000  Li
  Li11     1.0000 0.26900  0.10900  0.87900  Biso   1.000  Li
  Li12     1.0000 0.12100  0.73100  0.89100  Biso   1.000  Li
