data_image0
_cell_length_a       5.9236
_cell_length_b       5.9236
_cell_length_c       5.9236
_cell_angle_alpha    107.358
_cell_angle_beta     113.786
_cell_angle_gamma    107.358

_symmetry_space_group_name_H-M    "P 1"
_symmetry_int_tables_number       1

loop_
  _symmetry_equiv_pos_as_xyz
  'x, y, z'

loop_
  _atom_site_label
  _atom_site_occupancy
  _atom_site_fract_x
  _atom_site_fract_y
  _atom_site_fract_z
  _atom_site_thermal_displace_type
  _atom_site_B_iso_or_equiv
  _atom_site_type_symbol
  O1       1.0000 0.55500  0.18400  0.34800  Biso   1.000  O 
  O2       1.0000 0.16500  0.81600  0.37100  Biso   1.000  O 
  O3       1.0000 0.12100  0.31600  0.41500  Biso   1.000  O 
  O4       1.0000 0.62900  0.79300  0.44500  Biso   1.000  O 
  O5       1.0000 0.09830  0.68400  0.80500  Biso   1.000  O 
  O6       1.0000 0.65200  0.20700  0.83500  Biso   1.000  O 
  O7       1.0000 0.19500  0.29300  0.87900  Biso   1.000  O 
  O8       1.0000 0.58500  0.70700  0.90200  Biso   1.000  O 
  Si1      1.0000 0.50000  0.00000  0.50000  Biso   1.000  Si
  Si2      1.0000 0.25000  0.50000  0.75000  Biso   1.000  Si
  Zn1      1.0000 0.71700  0.09250  0.12500  Biso   1.000  Zn
  Zn2      1.0000 0.37500  0.40800  0.28300  Biso   1.000  Zn
  Zn3      1.0000 0.03250  0.90800  0.62500  Biso   1.000  Zn
  Zn4      1.0000 0.87500  0.59200  0.96700  Biso   1.000  Zn
