data_image0
_cell_length_a       7.08067
_cell_length_b       7.08067
_cell_length_c       7.08067
_cell_angle_alpha    107.962
_cell_angle_beta     112.533
_cell_angle_gamma    107.962

_symmetry_space_group_name_H-M    "P 1"
_symmetry_int_tables_number       1

loop_
  _symmetry_equiv_pos_as_xyz
  'x, y, z'

loop_
  _atom_site_label
  _atom_site_occupancy
  _atom_site_fract_x
  _atom_site_fract_y
  _atom_site_fract_z
  _atom_site_thermal_displace_type
  _atom_site_B_iso_or_equiv
  _atom_site_type_symbol
  Ag1      1.0000 0.75000  0.50000  0.25000  Biso   1.000  Ag
  Ag2      1.0000 0.31000  0.00000  0.31000  Biso   1.000  Ag
  Ag3      1.0000 0.69000  0.00000  0.69000  Biso   1.000  Ag
  Ag4      1.0000 0.25000  0.50000  0.75000  Biso   1.000  Ag
  Cl1      1.0000 0.73900  0.93300  0.19500  Biso   1.000  Cl
  Cl2      1.0000 0.19500  0.45600  0.26100  Biso   1.000  Cl
  Cl3      1.0000 0.80500  0.54400  0.73900  Biso   1.000  Cl
  Cl4      1.0000 0.26100  0.06650  0.80500  Biso   1.000  Cl
  O1       1.0000 0.40000  0.15800  0.06700  Biso   1.000  O 
  O2       1.0000 0.93300  0.33300  0.09120  Biso   1.000  O 
  O3       1.0000 0.90900  0.84200  0.24200  Biso   1.000  O 
  O4       1.0000 0.56600  0.81400  0.24900  Biso   1.000  O 
  O5       1.0000 0.24200  0.33300  0.40000  Biso   1.000  O 
  O6       1.0000 0.24900  0.68300  0.43400  Biso   1.000  O 
  O7       1.0000 0.75100  0.31700  0.56600  Biso   1.000  O 
  O8       1.0000 0.75800  0.66700  0.60000  Biso   1.000  O 
  O9       1.0000 0.43400  0.18600  0.75100  Biso   1.000  O 
  O10      1.0000 0.09120  0.15800  0.75800  Biso   1.000  O 
  O11      1.0000 0.06700  0.66700  0.90900  Biso   1.000  O 
  O12      1.0000 0.60000  0.84200  0.93300  Biso   1.000  O 
