data_image0
_cell_length_a       7.31917
_cell_length_b       9.91593
_cell_length_c       5.74007
_cell_angle_alpha    90
_cell_angle_beta     90
_cell_angle_gamma    90

_symmetry_space_group_name_H-M    "P 1"
_symmetry_int_tables_number       1

loop_
  _symmetry_equiv_pos_as_xyz
  'x, y, z'

loop_
  _atom_site_label
  _atom_site_occupancy
  _atom_site_fract_x
  _atom_site_fract_y
  _atom_site_fract_z
  _atom_site_thermal_displace_type
  _atom_site_B_iso_or_equiv
  _atom_site_type_symbol
  H1       1.0000 0.60800  0.30800  0.25000  Biso   1.000  H 
  H2       1.0000 0.89200  0.80800  0.75000  Biso   1.000  H 
  H3       1.0000 0.10800  0.19200  0.25000  Biso   1.000  H 
  H4       1.0000 0.39200  0.69200  0.75000  Biso   1.000  H 
  H5       1.0000 0.65000  0.45100  0.10300  Biso   1.000  H 
  H6       1.0000 0.85000  0.95100  0.89700  Biso   1.000  H 
  H7       1.0000 0.15000  0.04890  0.39700  Biso   1.000  H 
  H8       1.0000 0.35000  0.54900  0.60300  Biso   1.000  H 
  H9       1.0000 0.35000  0.54900  0.89700  Biso   1.000  H 
  H10      1.0000 0.15000  0.04890  0.10300  Biso   1.000  H 
  H11      1.0000 0.85000  0.95100  0.60300  Biso   1.000  H 
  H12      1.0000 0.65000  0.45100  0.39700  Biso   1.000  H 
  H13      1.0000 0.82300  0.37700  0.25000  Biso   1.000  H 
  H14      1.0000 0.67700  0.87700  0.75000  Biso   1.000  H 
  H15      1.0000 0.32300  0.12300  0.25000  Biso   1.000  H 
  H16      1.0000 0.17700  0.62300  0.75000  Biso   1.000  H 
  H17      1.0000 0.89000  0.67000  0.10600  Biso   1.000  H 
  H18      1.0000 0.61000  0.17000  0.89400  Biso   1.000  H 
  H19      1.0000 0.39000  0.83000  0.39400  Biso   1.000  H 
  H20      1.0000 0.11000  0.33000  0.60600  Biso   1.000  H 
  H21      1.0000 0.11000  0.33000  0.89400  Biso   1.000  H 
  H22      1.0000 0.39000  0.83000  0.10600  Biso   1.000  H 
  H23      1.0000 0.61000  0.17000  0.60600  Biso   1.000  H 
  H24      1.0000 0.89000  0.67000  0.39400  Biso   1.000  H 
  H25      1.0000 0.09300  0.64600  0.25000  Biso   1.000  H 
  H26      1.0000 0.40700  0.14600  0.75000  Biso   1.000  H 
  H27      1.0000 0.59300  0.85400  0.25000  Biso   1.000  H 
  H28      1.0000 0.90700  0.35400  0.75000  Biso   1.000  H 
  H29      1.0000 0.98700  0.79800  0.25000  Biso   1.000  H 
  H30      1.0000 0.51300  0.29800  0.75000  Biso   1.000  H 
  H31      1.0000 0.48700  0.70200  0.25000  Biso   1.000  H 
  H32      1.0000 0.01310  0.20200  0.75000  Biso   1.000  H 
  N1       1.0000 0.68300  0.39600  0.25000  Biso   1.000  N 
  N2       1.0000 0.81700  0.89600  0.75000  Biso   1.000  N 
  N3       1.0000 0.18300  0.10400  0.25000  Biso   1.000  N 
  N4       1.0000 0.31700  0.60400  0.75000  Biso   1.000  N 
  N5       1.0000 0.96700  0.69500  0.25000  Biso   1.000  N 
  N6       1.0000 0.53300  0.19500  0.75000  Biso   1.000  N 
  N7       1.0000 0.46700  0.80500  0.25000  Biso   1.000  N 
  N8       1.0000 0.03290  0.30500  0.75000  Biso   1.000  N 
  O1       1.0000 0.33700  0.35900  0.03720  Biso   1.000  O 
  O2       1.0000 0.16300  0.85900  0.96300  Biso   1.000  O 
  O3       1.0000 0.83700  0.14100  0.46300  Biso   1.000  O 
  O4       1.0000 0.66300  0.64100  0.53700  Biso   1.000  O 
  O5       1.0000 0.66300  0.64100  0.96300  Biso   1.000  O 
  O6       1.0000 0.83700  0.14100  0.03720  Biso   1.000  O 
  O7       1.0000 0.16300  0.85900  0.53700  Biso   1.000  O 
  O8       1.0000 0.33700  0.35900  0.46300  Biso   1.000  O 
  O9       1.0000 0.29400  0.56600  0.25000  Biso   1.000  O 
  O10      1.0000 0.20600  0.06600  0.75000  Biso   1.000  O 
  O11      1.0000 0.79400  0.93400  0.25000  Biso   1.000  O 
  O12      1.0000 0.70600  0.43400  0.75000  Biso   1.000  O 
  O13      1.0000 0.05670  0.39300  0.25000  Biso   1.000  O 
  O14      1.0000 0.44300  0.89300  0.75000  Biso   1.000  O 
  O15      1.0000 0.55700  0.10700  0.25000  Biso   1.000  O 
  O16      1.0000 0.94300  0.60700  0.75000  Biso   1.000  O 
  S1       1.0000 0.25700  0.41800  0.25000  Biso   1.000  S 
  S2       1.0000 0.24300  0.91800  0.75000  Biso   1.000  S 
  S3       1.0000 0.75700  0.08160  0.25000  Biso   1.000  S 
  S4       1.0000 0.74300  0.58200  0.75000  Biso   1.000  S 
