data_image0
_cell_length_a       7.88047
_cell_length_b       7.88047
_cell_length_c       5.49544
_cell_angle_alpha    90
_cell_angle_beta     90
_cell_angle_gamma    120

_symmetry_space_group_name_H-M    "P 1"
_symmetry_int_tables_number       1

loop_
  _symmetry_equiv_pos_as_xyz
  'x, y, z'

loop_
  _atom_site_label
  _atom_site_occupancy
  _atom_site_fract_x
  _atom_site_fract_y
  _atom_site_fract_z
  _atom_site_thermal_displace_type
  _atom_site_B_iso_or_equiv
  _atom_site_type_symbol
  Hf1      1.0000 0.66700  0.33300  0.00000  Biso   1.000  Hf
  Hf2      1.0000 0.33300  0.66700  0.00000  Biso   1.000  Hf
  Hf3      1.0000 0.25200  1.00000  0.25000  Biso   1.000  Hf
  Hf4      1.0000 0.00000  0.25200  0.25000  Biso   1.000  Hf
  Hf5      1.0000 0.74800  0.74800  0.25000  Biso   1.000  Hf
  Hf6      1.0000 0.66700  0.33300  0.50000  Biso   1.000  Hf
  Hf7      1.0000 0.33300  0.66700  0.50000  Biso   1.000  Hf
  Hf8      1.0000 0.74800  0.00000  0.75000  Biso   1.000  Hf
  Hf9      1.0000 0.00000  0.74800  0.75000  Biso   1.000  Hf
  Hf10     1.0000 0.25200  0.25200  0.75000  Biso   1.000  Hf
  Si1      1.0000 0.60900  0.00000  0.25000  Biso   1.000  Si
  Si2      1.0000 0.00000  0.60900  0.25000  Biso   1.000  Si
  Si3      1.0000 0.39100  0.39100  0.25000  Biso   1.000  Si
  Si4      1.0000 0.39100  0.00000  0.75000  Biso   1.000  Si
  Si5      1.0000 0.00000  0.39100  0.75000  Biso   1.000  Si
  Si6      1.0000 0.60900  0.60900  0.75000  Biso   1.000  Si
