data_image0
_cell_length_a       3.80664
_cell_length_b       3.80664
_cell_length_c       8.38684
_cell_angle_alpha    76.8829
_cell_angle_beta     103.117
_cell_angle_gamma    120

_symmetry_space_group_name_H-M    "P 1"
_symmetry_int_tables_number       1

loop_
  _symmetry_equiv_pos_as_xyz
  'x, y, z'

loop_
  _atom_site_label
  _atom_site_occupancy
  _atom_site_fract_x
  _atom_site_fract_y
  _atom_site_fract_z
  _atom_site_thermal_displace_type
  _atom_site_B_iso_or_equiv
  _atom_site_type_symbol
  Ga1      1.0000 0.05060  0.94900  0.15200  Biso   1.000  Ga
  Ga2      1.0000 0.94900  0.05100  0.84700  Biso   1.000  Ga
  Se1      1.0000 0.43200  0.56800  0.29700  Biso   1.000  Se
  Se2      1.0000 0.23400  0.76600  0.70200  Biso   1.000  Se
