data_image0
_cell_length_a       5.45992
_cell_length_b       7.01138
_cell_length_c       9.54239
_cell_angle_alpha    89.9983
_cell_angle_beta     91.2633
_cell_angle_gamma    90.0039

_symmetry_space_group_name_H-M    "P 1"
_symmetry_int_tables_number       1

loop_
  _symmetry_equiv_pos_as_xyz
  'x, y, z'

loop_
  _atom_site_label
  _atom_site_occupancy
  _atom_site_fract_x
  _atom_site_fract_y
  _atom_site_fract_z
  _atom_site_thermal_displace_type
  _atom_site_B_iso_or_equiv
  _atom_site_type_symbol
  O1       1.0000 0.01490  0.70100  0.66700  Biso   1.000  O 
  O2       1.0000 0.48500  0.20100  0.83300  Biso   1.000  O 
  O3       1.0000 0.98500  0.29900  0.33300  Biso   1.000  O 
  O4       1.0000 0.51500  0.79900  0.16700  Biso   1.000  O 
  O5       1.0000 0.49800  0.68000  0.64400  Biso   1.000  O 
  O6       1.0000 0.00172  0.18000  0.85600  Biso   1.000  O 
  O7       1.0000 0.50200  0.32000  0.35600  Biso   1.000  O 
  O8       1.0000 0.99800  0.82000  0.14400  Biso   1.000  O 
  O9       1.0000 0.21800  0.68600  0.42100  Biso   1.000  O 
  O10      1.0000 0.28200  0.18600  0.07940  Biso   1.000  O 
  O11      1.0000 0.78200  0.31400  0.57900  Biso   1.000  O 
  O12      1.0000 0.71800  0.81400  0.92100  Biso   1.000  O 
  O13      1.0000 0.26100  0.00634  0.58100  Biso   1.000  O 
  O14      1.0000 0.23900  0.50600  0.91900  Biso   1.000  O 
  O15      1.0000 0.73900  0.99400  0.41900  Biso   1.000  O 
  O16      1.0000 0.76100  0.49400  0.08120  Biso   1.000  O 
  Si1      1.0000 0.24800  0.77500  0.57900  Biso   1.000  Si
  Si2      1.0000 0.25200  0.27500  0.92100  Biso   1.000  Si
  Si3      1.0000 0.75200  0.22500  0.42100  Biso   1.000  Si
  Si4      1.0000 0.74800  0.72500  0.07940  Biso   1.000  Si
  Sr1      1.0000 0.25700  0.00921  0.30700  Biso   1.000  Sr
  Sr2      1.0000 0.24300  0.50900  0.19300  Biso   1.000  Sr
  Sr3      1.0000 0.74300  0.99100  0.69300  Biso   1.000  Sr
  Sr4      1.0000 0.75700  0.49100  0.80700  Biso   1.000  Sr
  Sr5      1.0000 0.25500  0.34800  0.58300  Biso   1.000  Sr
  Sr6      1.0000 0.24500  0.84800  0.91700  Biso   1.000  Sr
  Sr7      1.0000 0.74500  0.65200  0.41700  Biso   1.000  Sr
  Sr8      1.0000 0.75500  0.15200  0.08320  Biso   1.000  Sr
