data_image0
_cell_length_a       3.61485
_cell_length_b       3.61485
_cell_length_c       6.07841
_cell_angle_alpha    107.299
_cell_angle_beta     107.299
_cell_angle_gamma    90

_symmetry_space_group_name_H-M    "P 1"
_symmetry_int_tables_number       1

loop_
  _symmetry_equiv_pos_as_xyz
  'x, y, z'

loop_
  _atom_site_label
  _atom_site_occupancy
  _atom_site_fract_x
  _atom_site_fract_y
  _atom_site_fract_z
  _atom_site_thermal_displace_type
  _atom_site_B_iso_or_equiv
  _atom_site_type_symbol
  F1       1.0000 0.68600  0.68600  0.37100  Biso   1.000  F 
  F2       1.0000 0.31400  0.31400  0.62900  Biso   1.000  F 
  Hg1      1.0000 0.11600  0.11600  0.23100  Biso   1.000  Hg
  Hg2      1.0000 0.88400  0.88400  0.76900  Biso   1.000  Hg
