data_image0
_cell_length_a       3.39144
_cell_length_b       3.39671
_cell_length_c       8.81392
_cell_angle_alpha    100.722
_cell_angle_beta     90
_cell_angle_gamma    119.949

_symmetry_space_group_name_H-M    "P 1"
_symmetry_int_tables_number       1

loop_
  _symmetry_equiv_pos_as_xyz
  'x, y, z'

loop_
  _atom_site_label
  _atom_site_occupancy
  _atom_site_fract_x
  _atom_site_fract_y
  _atom_site_fract_z
  _atom_site_thermal_displace_type
  _atom_site_B_iso_or_equiv
  _atom_site_type_symbol
  S1       1.0000 0.38700  0.77300  0.16500  Biso   1.000  S 
  S2       1.0000 0.61300  0.22700  0.83500  Biso   1.000  S 
  Ti1      1.0000 0.00000  0.00000  0.00000  Biso   1.000  Ti
