data_image0
_cell_length_a       3.57671
_cell_length_b       5.39132
_cell_length_c       4.83293
_cell_angle_alpha    90
_cell_angle_beta     90
_cell_angle_gamma    90

_symmetry_space_group_name_H-M    "P 1"
_symmetry_int_tables_number       1

loop_
  _symmetry_equiv_pos_as_xyz
  'x, y, z'

loop_
  _atom_site_label
  _atom_site_occupancy
  _atom_site_fract_x
  _atom_site_fract_y
  _atom_site_fract_z
  _atom_site_thermal_displace_type
  _atom_site_B_iso_or_equiv
  _atom_site_type_symbol
  C1       1.0000 0.00000  0.50000  0.13600  Biso   1.000  C 
  C2       1.0000 0.50000  0.00000  0.86400  Biso   1.000  C 
  N1       1.0000 0.00000  0.50000  0.38000  Biso   1.000  N 
  N2       1.0000 0.50000  0.00000  0.62000  Biso   1.000  N 
  Na1      1.0000 0.00000  0.00000  0.26200  Biso   1.000  Na
  Na2      1.0000 0.50000  0.50000  0.73800  Biso   1.000  Na
