data_image0
_cell_length_a       3.87539
_cell_length_b       3.87539
_cell_length_c       3.87539
_cell_angle_alpha    101.082
_cell_angle_beta     101.082
_cell_angle_gamma    101.082

_symmetry_space_group_name_H-M    "P 1"
_symmetry_int_tables_number       1

loop_
  _symmetry_equiv_pos_as_xyz
  'x, y, z'

loop_
  _atom_site_label
  _atom_site_occupancy
  _atom_site_fract_x
  _atom_site_fract_y
  _atom_site_fract_z
  _atom_site_thermal_displace_type
  _atom_site_B_iso_or_equiv
  _atom_site_type_symbol
  Ag1      1.0000 0.97800  0.97800  0.97800  Biso   1.000  Ag
  C1       1.0000 0.59500  0.59500  0.59500  Biso   1.000  C 
  N1       1.0000 0.37200  0.37200  0.37200  Biso   1.000  N 
