data_image0
_cell_length_a       12.6477
_cell_length_b       12.6477
_cell_length_c       12.6477
_cell_angle_alpha    90
_cell_angle_beta     90
_cell_angle_gamma    90

_symmetry_space_group_name_H-M    "P 1"
_symmetry_int_tables_number       1

loop_
  _symmetry_equiv_pos_as_xyz
  'x, y, z'

loop_
  _atom_site_label
  _atom_site_occupancy
  _atom_site_fract_x
  _atom_site_fract_y
  _atom_site_fract_z
  _atom_site_thermal_displace_type
  _atom_site_B_iso_or_equiv
  _atom_site_type_symbol
  I1       1.0000 0.24400  0.03060  0.01040  Biso   1.000  I 
  I2       1.0000 0.25600  0.53100  0.01040  Biso   1.000  I 
  I3       1.0000 0.01040  0.24400  0.03060  Biso   1.000  I 
  I4       1.0000 0.49000  0.74400  0.03060  Biso   1.000  I 
  I5       1.0000 0.03060  0.01040  0.24400  Biso   1.000  I 
  I6       1.0000 0.46900  0.51000  0.24400  Biso   1.000  I 
  I7       1.0000 0.24500  0.24500  0.24500  Biso   1.000  I 
  I8       1.0000 0.25500  0.74500  0.24500  Biso   1.000  I 
  I9       1.0000 0.74500  0.24500  0.25500  Biso   1.000  I 
  I10      1.0000 0.75500  0.74500  0.25500  Biso   1.000  I 
  I11      1.0000 0.53100  0.01040  0.25600  Biso   1.000  I 
  I12      1.0000 0.96900  0.51000  0.25600  Biso   1.000  I 
  I13      1.0000 0.51000  0.24400  0.46900  Biso   1.000  I 
  I14      1.0000 0.99000  0.74400  0.46900  Biso   1.000  I 
  I15      1.0000 0.74400  0.03060  0.49000  Biso   1.000  I 
  I16      1.0000 0.75600  0.53100  0.49000  Biso   1.000  I 
  I17      1.0000 0.24400  0.46900  0.51000  Biso   1.000  I 
  I18      1.0000 0.25600  0.96900  0.51000  Biso   1.000  I 
  I19      1.0000 0.01040  0.25600  0.53100  Biso   1.000  I 
  I20      1.0000 0.49000  0.75600  0.53100  Biso   1.000  I 
  I21      1.0000 0.03060  0.49000  0.74400  Biso   1.000  I 
  I22      1.0000 0.46900  0.99000  0.74400  Biso   1.000  I 
  I23      1.0000 0.24500  0.25500  0.74500  Biso   1.000  I 
  I24      1.0000 0.25500  0.75500  0.74500  Biso   1.000  I 
  I25      1.0000 0.74500  0.25500  0.75500  Biso   1.000  I 
  I26      1.0000 0.75500  0.75500  0.75500  Biso   1.000  I 
  I27      1.0000 0.53100  0.49000  0.75600  Biso   1.000  I 
  I28      1.0000 0.96900  0.99000  0.75600  Biso   1.000  I 
  I29      1.0000 0.51000  0.25600  0.96900  Biso   1.000  I 
  I30      1.0000 0.99000  0.75600  0.96900  Biso   1.000  I 
  I31      1.0000 0.74400  0.46900  0.99000  Biso   1.000  I 
  I32      1.0000 0.75600  0.96900  0.99000  Biso   1.000  I 
  Si1      1.0000 0.13300  0.13300  0.13300  Biso   1.000  Si
  Si2      1.0000 0.36700  0.63300  0.13300  Biso   1.000  Si
  Si3      1.0000 0.63300  0.13300  0.36700  Biso   1.000  Si
  Si4      1.0000 0.86700  0.63300  0.36700  Biso   1.000  Si
  Si5      1.0000 0.13300  0.36700  0.63300  Biso   1.000  Si
  Si6      1.0000 0.36700  0.86700  0.63300  Biso   1.000  Si
  Si7      1.0000 0.63300  0.36700  0.86700  Biso   1.000  Si
  Si8      1.0000 0.86700  0.86700  0.86700  Biso   1.000  Si
