data_image0
_cell_length_a       5.12005
_cell_length_b       5.12005
_cell_length_c       5.48045
_cell_angle_alpha    117.847
_cell_angle_beta     62.1525
_cell_angle_gamma    120

_symmetry_space_group_name_H-M    "P 1"
_symmetry_int_tables_number       1

loop_
  _symmetry_equiv_pos_as_xyz
  'x, y, z'

loop_
  _atom_site_label
  _atom_site_occupancy
  _atom_site_fract_x
  _atom_site_fract_y
  _atom_site_fract_z
  _atom_site_thermal_displace_type
  _atom_site_B_iso_or_equiv
  _atom_site_type_symbol
  Fe1      1.0000 0.85500  0.14500  0.43500  Biso   1.000  Fe
  Fe2      1.0000 0.14500  0.85500  0.56500  Biso   1.000  Fe
  O1       1.0000 0.93400  0.72500  0.24000  Biso   1.000  O 
  O2       1.0000 0.55100  0.06580  0.24000  Biso   1.000  O 
  O3       1.0000 0.27500  0.44900  0.24000  Biso   1.000  O 
  O4       1.0000 0.72500  0.55100  0.76000  Biso   1.000  O 
  O5       1.0000 0.44900  0.93400  0.76000  Biso   1.000  O 
  O6       1.0000 0.06580  0.27500  0.76000  Biso   1.000  O 
  Ti1      1.0000 0.64800  0.35200  0.05560  Biso   1.000  Ti
  Ti2      1.0000 0.35200  0.64800  0.94400  Biso   1.000  Ti
