data_image0
_cell_length_a       3.94897
_cell_length_b       3.94897
_cell_length_c       3.94897
_cell_angle_alpha    100.419
_cell_angle_beta     79.5808
_cell_angle_gamma    100.419

_symmetry_space_group_name_H-M    "P 1"
_symmetry_int_tables_number       1

loop_
  _symmetry_equiv_pos_as_xyz
  'x, y, z'

loop_
  _atom_site_label
  _atom_site_occupancy
  _atom_site_fract_x
  _atom_site_fract_y
  _atom_site_fract_z
  _atom_site_thermal_displace_type
  _atom_site_B_iso_or_equiv
  _atom_site_type_symbol
  Ag1      1.0000 0.00139  0.99900  0.00139  Biso   1.000  Ag
  N1       1.0000 0.42600  0.57400  0.42600  Biso   1.000  N 
  O1       1.0000 0.56800  0.43200  0.13400  Biso   1.000  O 
  O2       1.0000 0.13400  0.43200  0.56800  Biso   1.000  O 
  O3       1.0000 0.56800  0.86600  0.56800  Biso   1.000  O 
