data_image0
_cell_length_a       4.95627
_cell_length_b       4.95627
_cell_length_c       7.24623
_cell_angle_alpha    90
_cell_angle_beta     90
_cell_angle_gamma    109.544

_symmetry_space_group_name_H-M    "P 1"
_symmetry_int_tables_number       1

loop_
  _symmetry_equiv_pos_as_xyz
  'x, y, z'

loop_
  _atom_site_label
  _atom_site_occupancy
  _atom_site_fract_x
  _atom_site_fract_y
  _atom_site_fract_z
  _atom_site_thermal_displace_type
  _atom_site_B_iso_or_equiv
  _atom_site_type_symbol
  As1      1.0000 0.86300  0.13700  0.25000  Biso   1.000  As
  As2      1.0000 0.13700  0.86300  0.75000  Biso   1.000  As
  O1       1.0000 0.76600  0.23400  0.04110  Biso   1.000  O 
  O2       1.0000 0.23500  0.25900  0.25000  Biso   1.000  O 
  O3       1.0000 0.74100  0.76500  0.25000  Biso   1.000  O 
  O4       1.0000 0.76600  0.23400  0.45900  Biso   1.000  O 
  O5       1.0000 0.23400  0.76600  0.54100  Biso   1.000  O 
  O6       1.0000 0.25900  0.23500  0.75000  Biso   1.000  O 
  O7       1.0000 0.76500  0.74100  0.75000  Biso   1.000  O 
  O8       1.0000 0.23400  0.76600  0.95900  Biso   1.000  O 
  Tl1      1.0000 0.50000  0.50000  0.00000  Biso   1.000  Tl
  Tl2      1.0000 0.50000  0.50000  0.50000  Biso   1.000  Tl
