data_image0
_cell_length_a       5.72332
_cell_length_b       8.17713
_cell_length_c       8.29388
_cell_angle_alpha    90
_cell_angle_beta     90
_cell_angle_gamma    90

_symmetry_space_group_name_H-M    "P 1"
_symmetry_int_tables_number       1

loop_
  _symmetry_equiv_pos_as_xyz
  'x, y, z'

loop_
  _atom_site_label
  _atom_site_occupancy
  _atom_site_fract_x
  _atom_site_fract_y
  _atom_site_fract_z
  _atom_site_thermal_displace_type
  _atom_site_B_iso_or_equiv
  _atom_site_type_symbol
  Ba1      1.0000 0.47600  0.19900  0.25000  Biso   1.000  Ba
  Ba2      1.0000 0.52400  0.69900  0.25000  Biso   1.000  Ba
  Ba3      1.0000 0.47600  0.30100  0.75000  Biso   1.000  Ba
  Ba4      1.0000 0.52400  0.80100  0.75000  Biso   1.000  Ba
  O1       1.0000 0.15700  0.25000  0.00000  Biso   1.000  O 
  O2       1.0000 0.84300  0.75000  0.00000  Biso   1.000  O 
  O3       1.0000 0.70300  0.42300  0.07100  Biso   1.000  O 
  O4       1.0000 0.29700  0.92300  0.07100  Biso   1.000  O 
  O5       1.0000 0.87200  0.02610  0.25000  Biso   1.000  O 
  O6       1.0000 0.12800  0.52600  0.25000  Biso   1.000  O 
  O7       1.0000 0.70300  0.42300  0.42900  Biso   1.000  O 
  O8       1.0000 0.29700  0.92300  0.42900  Biso   1.000  O 
  O9       1.0000 0.15700  0.25000  0.50000  Biso   1.000  O 
  O10      1.0000 0.84300  0.75000  0.50000  Biso   1.000  O 
  O11      1.0000 0.70300  0.07670  0.57100  Biso   1.000  O 
  O12      1.0000 0.29700  0.57700  0.57100  Biso   1.000  O 
  O13      1.0000 0.87200  0.47400  0.75000  Biso   1.000  O 
  O14      1.0000 0.12800  0.97400  0.75000  Biso   1.000  O 
  O15      1.0000 0.70300  0.07670  0.92900  Biso   1.000  O 
  O16      1.0000 0.29700  0.57700  0.92900  Biso   1.000  O 
  U1       1.0000 0.00000  0.00000  0.00000  Biso   1.000  U 
  U2       1.0000 0.00000  0.50000  0.00000  Biso   1.000  U 
  U3       1.0000 0.00000  0.00000  0.50000  Biso   1.000  U 
  U4       1.0000 0.00000  0.50000  0.50000  Biso   1.000  U 
