data_image0
_cell_length_a       6.45175
_cell_length_b       6.45175
_cell_length_c       7.07377
_cell_angle_alpha    117.131
_cell_angle_beta     117.131
_cell_angle_gamma    60

_symmetry_space_group_name_H-M    "P 1"
_symmetry_int_tables_number       1

loop_
  _symmetry_equiv_pos_as_xyz
  'x, y, z'

loop_
  _atom_site_label
  _atom_site_occupancy
  _atom_site_fract_x
  _atom_site_fract_y
  _atom_site_fract_z
  _atom_site_thermal_displace_type
  _atom_site_B_iso_or_equiv
  _atom_site_type_symbol
  Cl1      1.0000 0.75000  0.08760  0.25000  Biso   1.000  Cl
  Cl2      1.0000 0.08760  0.41200  0.25000  Biso   1.000  Cl
  Cl3      1.0000 0.41200  0.75000  0.25000  Biso   1.000  Cl
  Cl4      1.0000 0.58800  0.25000  0.75000  Biso   1.000  Cl
  Cl5      1.0000 0.91200  0.58800  0.75000  Biso   1.000  Cl
  Cl6      1.0000 0.25000  0.91200  0.75000  Biso   1.000  Cl
  Tm1      1.0000 0.00000  0.00000  0.00000  Biso   1.000  Tm
  Tm2      1.0000 0.50000  0.50000  0.50000  Biso   1.000  Tm
