data_image0
_cell_length_a       5.73101
_cell_length_b       5.97557
_cell_length_c       5.97557
_cell_angle_alpha    103.294
_cell_angle_beta     61.3449
_cell_angle_gamma    118.655

_symmetry_space_group_name_H-M    "P 1"
_symmetry_int_tables_number       1

loop_
  _symmetry_equiv_pos_as_xyz
  'x, y, z'

loop_
  _atom_site_label
  _atom_site_occupancy
  _atom_site_fract_x
  _atom_site_fract_y
  _atom_site_fract_z
  _atom_site_thermal_displace_type
  _atom_site_B_iso_or_equiv
  _atom_site_type_symbol
  Au1      1.0000 0.25000  0.00000  0.00000  Biso   1.000  Au
  Au2      1.0000 0.75000  0.00000  0.00000  Biso   1.000  Au
  Pb1      1.0000 0.15900  0.50000  0.18200  Biso   1.000  Pb
  Pb2      1.0000 0.34100  0.18200  0.50000  Biso   1.000  Pb
  Pb3      1.0000 0.65900  0.81800  0.50000  Biso   1.000  Pb
  Pb4      1.0000 0.84100  0.50000  0.81800  Biso   1.000  Pb
