data_image0
_cell_length_a       6.51541
_cell_length_b       6.38582
_cell_length_c       6.54368
_cell_angle_alpha    90
_cell_angle_beta     117.554
_cell_angle_gamma    90

_symmetry_space_group_name_H-M    "P 1"
_symmetry_int_tables_number       1

loop_
  _symmetry_equiv_pos_as_xyz
  'x, y, z'

loop_
  _atom_site_label
  _atom_site_occupancy
  _atom_site_fract_x
  _atom_site_fract_y
  _atom_site_fract_z
  _atom_site_thermal_displace_type
  _atom_site_B_iso_or_equiv
  _atom_site_type_symbol
  Co1      1.0000 0.26900  0.99900  0.27900  Biso   1.000  Co
  Co2      1.0000 0.73100  0.49900  0.22100  Biso   1.000  Co
  Co3      1.0000 0.73100  0.00113  0.72100  Biso   1.000  Co
  Co4      1.0000 0.26900  0.50100  0.77900  Biso   1.000  Co
  Sb1      1.0000 0.14700  0.64100  0.36700  Biso   1.000  Sb
  Sb2      1.0000 0.85300  0.14100  0.13300  Biso   1.000  Sb
  Sb3      1.0000 0.85300  0.35900  0.63300  Biso   1.000  Sb
  Sb4      1.0000 0.14700  0.85900  0.86700  Biso   1.000  Sb
  Sb5      1.0000 0.34800  0.35500  0.16400  Biso   1.000  Sb
  Sb6      1.0000 0.65200  0.85500  0.33600  Biso   1.000  Sb
  Sb7      1.0000 0.65200  0.64500  0.83600  Biso   1.000  Sb
  Sb8      1.0000 0.34800  0.14500  0.66400  Biso   1.000  Sb
