data_image0
_cell_length_a       5.11598
_cell_length_b       4.77449
_cell_length_c       4.9261
_cell_angle_alpha    90.0058
_cell_angle_beta     61.6674
_cell_angle_gamma    90.0044

_symmetry_space_group_name_H-M    "P 1"
_symmetry_int_tables_number       1

loop_
  _symmetry_equiv_pos_as_xyz
  'x, y, z'

loop_
  _atom_site_label
  _atom_site_occupancy
  _atom_site_fract_x
  _atom_site_fract_y
  _atom_site_fract_z
  _atom_site_thermal_displace_type
  _atom_site_B_iso_or_equiv
  _atom_site_type_symbol
  F1       1.0000 0.13100  0.14000  0.23800  Biso   1.000  F 
  F2       1.0000 0.87800  0.66600  0.24400  Biso   1.000  F 
  F3       1.0000 0.62200  0.16600  0.25600  Biso   1.000  F 
  F4       1.0000 0.36900  0.64000  0.26200  Biso   1.000  F 
  F5       1.0000 0.63100  0.36000  0.73800  Biso   1.000  F 
  F6       1.0000 0.37800  0.83400  0.74400  Biso   1.000  F 
  F7       1.0000 0.12200  0.33400  0.75600  Biso   1.000  F 
  F8       1.0000 0.86900  0.86000  0.76200  Biso   1.000  F 
  V1       1.0000 0.00000  0.00000  0.00000  Biso   1.000  V 
  V2       1.0000 0.50000  0.50000  0.50000  Biso   1.000  V 
