data_image0
_cell_length_a       3.08113
_cell_length_b       3.08113
_cell_length_c       7.37199
_cell_angle_alpha    77.9377
_cell_angle_beta     102.062
_cell_angle_gamma    120

_symmetry_space_group_name_H-M    "P 1"
_symmetry_int_tables_number       1

loop_
  _symmetry_equiv_pos_as_xyz
  'x, y, z'

loop_
  _atom_site_label
  _atom_site_occupancy
  _atom_site_fract_x
  _atom_site_fract_y
  _atom_site_fract_z
  _atom_site_thermal_displace_type
  _atom_site_B_iso_or_equiv
  _atom_site_type_symbol
  B1       1.0000 0.66900  0.33100  0.00555  Biso   1.000  B 
  B2       1.0000 0.81600  0.18400  0.44700  Biso   1.000  B 
  B3       1.0000 0.50000  0.50000  0.50000  Biso   1.000  B 
  B4       1.0000 0.18400  0.81600  0.55300  Biso   1.000  B 
  B5       1.0000 0.33100  0.66900  0.99400  Biso   1.000  B 
  Mo1      1.0000 0.07570  0.92400  0.22700  Biso   1.000  Mo
  Mo2      1.0000 0.92400  0.07570  0.77300  Biso   1.000  Mo
