data_image0
_cell_length_a       6.03012
_cell_length_b       6.03012
_cell_length_c       6.85416
_cell_angle_alpha    90
_cell_angle_beta     63.9033
_cell_angle_gamma    120

_symmetry_space_group_name_H-M    "P 1"
_symmetry_int_tables_number       1

loop_
  _symmetry_equiv_pos_as_xyz
  'x, y, z'

loop_
  _atom_site_label
  _atom_site_occupancy
  _atom_site_fract_x
  _atom_site_fract_y
  _atom_site_fract_z
  _atom_site_thermal_displace_type
  _atom_site_B_iso_or_equiv
  _atom_site_type_symbol
  Cl1      1.0000 0.84700  0.27900  0.22900  Biso   1.000  Cl
  Cl2      1.0000 0.49200  0.56800  0.22900  Biso   1.000  Cl
  Cl3      1.0000 0.20300  0.92400  0.22900  Biso   1.000  Cl
  Cl4      1.0000 0.79700  0.07620  0.77100  Biso   1.000  Cl
  Cl5      1.0000 0.50800  0.43200  0.77100  Biso   1.000  Cl
  Cl6      1.0000 0.15300  0.72100  0.77100  Biso   1.000  Cl
  V1       1.0000 0.66700  0.33300  0.00000  Biso   1.000  V 
  V2       1.0000 0.33300  0.66700  0.00001  Biso   1.000  V 
