data_image0
_cell_length_a       7.32713
_cell_length_b       7.32713
_cell_length_c       7.32713
_cell_angle_alpha    142.892
_cell_angle_beta     142.892
_cell_angle_gamma    53.487

_symmetry_space_group_name_H-M    "P 1"
_symmetry_int_tables_number       1

loop_
  _symmetry_equiv_pos_as_xyz
  'x, y, z'

loop_
  _atom_site_label
  _atom_site_occupancy
  _atom_site_fract_x
  _atom_site_fract_y
  _atom_site_fract_z
  _atom_site_thermal_displace_type
  _atom_site_B_iso_or_equiv
  _atom_site_type_symbol
  I1       1.0000 0.75000  0.25000  0.50000  Biso   1.000  I 
  I2       1.0000 0.25000  0.75000  0.50000  Biso   1.000  I 
  I3       1.0000 0.50000  0.50000  0.00000  Biso   1.000  I 
  In1      1.0000 0.00000  0.00000  0.00000  Biso   1.000  In
