data_image0
_cell_length_a       6.15221
_cell_length_b       8.19488
_cell_length_c       5.82995
_cell_angle_alpha    90
_cell_angle_beta     90
_cell_angle_gamma    90

_symmetry_space_group_name_H-M    "P 1"
_symmetry_int_tables_number       1

loop_
  _symmetry_equiv_pos_as_xyz
  'x, y, z'

loop_
  _atom_site_label
  _atom_site_occupancy
  _atom_site_fract_x
  _atom_site_fract_y
  _atom_site_fract_z
  _atom_site_thermal_displace_type
  _atom_site_B_iso_or_equiv
  _atom_site_type_symbol
  Hg1      1.0000 0.00000  0.00000  0.00000  Biso   1.000  Hg
  Hg2      1.0000 0.00000  0.50000  0.00000  Biso   1.000  Hg
  Hg3      1.0000 0.50000  0.00000  0.50000  Biso   1.000  Hg
  Hg4      1.0000 0.50000  0.50000  0.50000  Biso   1.000  Hg
  O1       1.0000 0.31300  0.58600  0.12600  Biso   1.000  O 
  O2       1.0000 0.31300  0.91400  0.12600  Biso   1.000  O 
  O3       1.0000 0.13400  0.25000  0.22800  Biso   1.000  O 
  O4       1.0000 0.63400  0.25000  0.27200  Biso   1.000  O 
  O5       1.0000 0.81300  0.58600  0.37400  Biso   1.000  O 
  O6       1.0000 0.81300  0.91400  0.37400  Biso   1.000  O 
  O7       1.0000 0.18700  0.08560  0.62600  Biso   1.000  O 
  O8       1.0000 0.18700  0.41400  0.62600  Biso   1.000  O 
  O9       1.0000 0.36600  0.75000  0.72800  Biso   1.000  O 
  O10      1.0000 0.86600  0.75000  0.77200  Biso   1.000  O 
  O11      1.0000 0.68700  0.08560  0.87400  Biso   1.000  O 
  O12      1.0000 0.68700  0.41400  0.87400  Biso   1.000  O 
  Se1      1.0000 0.45600  0.75000  0.00405  Biso   1.000  Se
  Se2      1.0000 0.95600  0.75000  0.49600  Biso   1.000  Se
  Se3      1.0000 0.04400  0.25000  0.50400  Biso   1.000  Se
  Se4      1.0000 0.54400  0.25000  0.99600  Biso   1.000  Se
