data_image0
_cell_length_a       6.26103
_cell_length_b       5.37583
_cell_length_c       4.93889
_cell_angle_alpha    90
_cell_angle_beta     90
_cell_angle_gamma    90

_symmetry_space_group_name_H-M    "P 1"
_symmetry_int_tables_number       1

loop_
  _symmetry_equiv_pos_as_xyz
  'x, y, z'

loop_
  _atom_site_label
  _atom_site_occupancy
  _atom_site_fract_x
  _atom_site_fract_y
  _atom_site_fract_z
  _atom_site_thermal_displace_type
  _atom_site_B_iso_or_equiv
  _atom_site_type_symbol
  As1      1.0000 0.00000  0.82900  0.00271  Biso   1.000  As
  As2      1.0000 0.50000  0.17100  0.50300  Biso   1.000  As
  Li1      1.0000 0.00000  0.16700  0.49100  Biso   1.000  Li
  Li2      1.0000 0.25200  0.67000  0.49600  Biso   1.000  Li
  Li3      1.0000 0.74800  0.67000  0.49600  Biso   1.000  Li
  Li4      1.0000 0.50000  0.83300  0.99100  Biso   1.000  Li
  Li5      1.0000 0.24800  0.33000  0.99600  Biso   1.000  Li
  Li6      1.0000 0.75200  0.33000  0.99600  Biso   1.000  Li
  O1       1.0000 0.00000  0.82500  0.35100  Biso   1.000  O 
  O2       1.0000 0.27500  0.32300  0.39000  Biso   1.000  O 
  O3       1.0000 0.72500  0.32300  0.39000  Biso   1.000  O 
  O4       1.0000 0.50000  0.86900  0.39100  Biso   1.000  O 
  O5       1.0000 0.50000  0.17500  0.85100  Biso   1.000  O 
  O6       1.0000 0.22500  0.67700  0.89000  Biso   1.000  O 
  O7       1.0000 0.77500  0.67700  0.89000  Biso   1.000  O 
  O8       1.0000 0.00000  0.13100  0.89100  Biso   1.000  O 
