data_image0
_cell_length_a       13.2213
_cell_length_b       13.2213
_cell_length_c       5.96539
_cell_angle_alpha    89.7089
_cell_angle_beta     90.2911
_cell_angle_gamma    91.6816

_symmetry_space_group_name_H-M    "P 1"
_symmetry_int_tables_number       1

loop_
  _symmetry_equiv_pos_as_xyz
  'x, y, z'

loop_
  _atom_site_label
  _atom_site_occupancy
  _atom_site_fract_x
  _atom_site_fract_y
  _atom_site_fract_z
  _atom_site_thermal_displace_type
  _atom_site_B_iso_or_equiv
  _atom_site_type_symbol
  Br1      1.0000 0.53700  0.66100  0.74900  Biso   1.000  Br
  Br2      1.0000 0.66100  0.53700  0.25100  Biso   1.000  Br
  Br3      1.0000 0.46300  0.33900  0.25100  Biso   1.000  Br
  Br4      1.0000 0.33900  0.46300  0.74900  Biso   1.000  Br
  Br5      1.0000 0.58300  0.80600  0.25800  Biso   1.000  Br
  Br6      1.0000 0.80600  0.58300  0.74200  Biso   1.000  Br
  Br7      1.0000 0.41700  0.19400  0.74200  Biso   1.000  Br
  Br8      1.0000 0.19400  0.41700  0.25800  Biso   1.000  Br
  Br9      1.0000 0.38700  0.61300  0.27600  Biso   1.000  Br
  Br10     1.0000 0.61300  0.38700  0.72400  Biso   1.000  Br
  Br11     1.0000 0.32600  0.87100  0.27100  Biso   1.000  Br
  Br12     1.0000 0.87100  0.32600  0.72900  Biso   1.000  Br
  Br13     1.0000 0.67400  0.12900  0.72900  Biso   1.000  Br
  Br14     1.0000 0.12900  0.67400  0.27100  Biso   1.000  Br
  Br15     1.0000 0.47300  0.91800  0.75700  Biso   1.000  Br
  Br16     1.0000 0.91800  0.47300  0.24300  Biso   1.000  Br
  Br17     1.0000 0.52700  0.08180  0.24300  Biso   1.000  Br
  Br18     1.0000 0.08180  0.52700  0.75700  Biso   1.000  Br
  Br19     1.0000 0.28100  0.71900  0.74800  Biso   1.000  Br
  Br20     1.0000 0.71900  0.28100  0.25200  Biso   1.000  Br
  Br21     1.0000 0.20400  0.99400  0.76400  Biso   1.000  Br
  Br22     1.0000 0.99400  0.20400  0.23600  Biso   1.000  Br
  Br23     1.0000 0.79600  0.00577  0.23600  Biso   1.000  Br
  Br24     1.0000 0.00577  0.79600  0.76400  Biso   1.000  Br
  Br25     1.0000 0.25100  0.14000  0.25200  Biso   1.000  Br
  Br26     1.0000 0.14000  0.25100  0.74800  Biso   1.000  Br
  Br27     1.0000 0.74900  0.86000  0.74800  Biso   1.000  Br
  Br28     1.0000 0.86000  0.74900  0.25200  Biso   1.000  Br
  Br29     1.0000 0.05280  0.94700  0.23700  Biso   1.000  Br
  Br30     1.0000 0.94700  0.05280  0.76300  Biso   1.000  Br
  W1       1.0000 0.44200  0.77600  0.51000  Biso   1.000  W 
  W2       1.0000 0.77600  0.44200  0.49000  Biso   1.000  W 
  W3       1.0000 0.55800  0.22400  0.49000  Biso   1.000  W 
  W4       1.0000 0.22400  0.55800  0.51000  Biso   1.000  W 
  W5       1.0000 0.11000  0.11000  0.00000  Biso   1.000  W 
  W6       1.0000 0.89000  0.89000  0.00000  Biso   1.000  W 
