data_image0
_cell_length_a       5.14419
_cell_length_b       3.04277
_cell_length_c       5.74886
_cell_angle_alpha    90
_cell_angle_beta     90
_cell_angle_gamma    90

_symmetry_space_group_name_H-M    "P 1"
_symmetry_int_tables_number       1

loop_
  _symmetry_equiv_pos_as_xyz
  'x, y, z'

loop_
  _atom_site_label
  _atom_site_occupancy
  _atom_site_fract_x
  _atom_site_fract_y
  _atom_site_fract_z
  _atom_site_thermal_displace_type
  _atom_site_B_iso_or_equiv
  _atom_site_type_symbol
  Fe1      1.0000 0.00115  0.25000  0.20100  Biso   1.000  Fe
  Fe2      1.0000 0.50100  0.25000  0.29900  Biso   1.000  Fe
  Fe3      1.0000 0.49900  0.75000  0.70100  Biso   1.000  Fe
  Fe4      1.0000 0.99900  0.75000  0.79900  Biso   1.000  Fe
  P1       1.0000 0.31000  0.75000  0.06710  Biso   1.000  P 
  P2       1.0000 0.81000  0.75000  0.43300  Biso   1.000  P 
  P3       1.0000 0.19000  0.25000  0.56700  Biso   1.000  P 
  P4       1.0000 0.69000  0.25000  0.93300  Biso   1.000  P 
