data_image0
_cell_length_a       6.02504
_cell_length_b       4.90859
_cell_length_c       10.3344
_cell_angle_alpha    90
_cell_angle_beta     92.6573
_cell_angle_gamma    90

_symmetry_space_group_name_H-M    "P 1"
_symmetry_int_tables_number       1

loop_
  _symmetry_equiv_pos_as_xyz
  'x, y, z'

loop_
  _atom_site_label
  _atom_site_occupancy
  _atom_site_fract_x
  _atom_site_fract_y
  _atom_site_fract_z
  _atom_site_thermal_displace_type
  _atom_site_B_iso_or_equiv
  _atom_site_type_symbol
  As1      1.0000 0.24500  0.43600  0.09220  Biso   1.000  As
  As2      1.0000 0.75500  0.93600  0.40800  Biso   1.000  As
  As3      1.0000 0.24500  0.06400  0.59200  Biso   1.000  As
  As4      1.0000 0.75500  0.56400  0.90800  Biso   1.000  As
  Fe1      1.0000 0.50000  0.00000  0.00000  Biso   1.000  Fe
  Fe2      1.0000 0.75600  0.48000  0.22800  Biso   1.000  Fe
  Fe3      1.0000 0.24400  0.98000  0.27200  Biso   1.000  Fe
  Fe4      1.0000 0.50000  0.50000  0.50000  Biso   1.000  Fe
  Fe5      1.0000 0.75600  0.01980  0.72800  Biso   1.000  Fe
  Fe6      1.0000 0.24400  0.52000  0.77200  Biso   1.000  Fe
  O1       1.0000 0.73900  0.69700  0.06180  Biso   1.000  O 
  O2       1.0000 0.25800  0.78400  0.09650  Biso   1.000  O 
  O3       1.0000 0.47500  0.26700  0.16700  Biso   1.000  O 
  O4       1.0000 0.03780  0.29300  0.17700  Biso   1.000  O 
  O5       1.0000 0.96200  0.79300  0.32300  Biso   1.000  O 
  O6       1.0000 0.52500  0.76700  0.33300  Biso   1.000  O 
  O7       1.0000 0.74200  0.28400  0.40300  Biso   1.000  O 
  O8       1.0000 0.26100  0.19700  0.43800  Biso   1.000  O 
  O9       1.0000 0.73900  0.80300  0.56200  Biso   1.000  O 
  O10      1.0000 0.25800  0.71600  0.59700  Biso   1.000  O 
  O11      1.0000 0.47500  0.23300  0.66700  Biso   1.000  O 
  O12      1.0000 0.03780  0.20700  0.67700  Biso   1.000  O 
  O13      1.0000 0.96200  0.70700  0.82300  Biso   1.000  O 
  O14      1.0000 0.52500  0.73300  0.83300  Biso   1.000  O 
  O15      1.0000 0.74200  0.21600  0.90300  Biso   1.000  O 
  O16      1.0000 0.26100  0.30300  0.93800  Biso   1.000  O 
