data_image0
_cell_length_a       14.4524
_cell_length_b       20.5135
_cell_length_c       6.80912
_cell_angle_alpha    90
_cell_angle_beta     90
_cell_angle_gamma    90

_symmetry_space_group_name_H-M    "P 1"
_symmetry_int_tables_number       1

loop_
  _symmetry_equiv_pos_as_xyz
  'x, y, z'

loop_
  _atom_site_label
  _atom_site_occupancy
  _atom_site_fract_x
  _atom_site_fract_y
  _atom_site_fract_z
  _atom_site_thermal_displace_type
  _atom_site_B_iso_or_equiv
  _atom_site_type_symbol
  I1       1.0000 0.95100  0.75000  0.72900  Biso   1.000  I 
  I2       1.0000 0.54900  0.25000  0.22900  Biso   1.000  I 
  I3       1.0000 0.45100  0.75000  0.77100  Biso   1.000  I 
  I4       1.0000 0.04910  0.25000  0.27100  Biso   1.000  I 
  I5       1.0000 0.79800  0.75000  0.28200  Biso   1.000  I 
  I6       1.0000 0.70200  0.25000  0.78200  Biso   1.000  I 
  I7       1.0000 0.29800  0.75000  0.21800  Biso   1.000  I 
  I8       1.0000 0.20200  0.25000  0.71800  Biso   1.000  I 
  I9       1.0000 0.02820  0.85000  0.27100  Biso   1.000  I 
  I10      1.0000 0.47200  0.15000  0.77100  Biso   1.000  I 
  I11      1.0000 0.52800  0.65000  0.22900  Biso   1.000  I 
  I12      1.0000 0.97200  0.35000  0.72900  Biso   1.000  I 
  I13      1.0000 0.97200  0.15000  0.72900  Biso   1.000  I 
  I14      1.0000 0.52800  0.85000  0.22900  Biso   1.000  I 
  I15      1.0000 0.47200  0.35000  0.77100  Biso   1.000  I 
  I16      1.0000 0.02820  0.65000  0.27100  Biso   1.000  I 
  I17      1.0000 0.79100  0.94100  0.25700  Biso   1.000  I 
  I18      1.0000 0.70900  0.05860  0.75700  Biso   1.000  I 
  I19      1.0000 0.29100  0.55900  0.24300  Biso   1.000  I 
  I20      1.0000 0.20900  0.44100  0.74300  Biso   1.000  I 
  I21      1.0000 0.20900  0.05860  0.74300  Biso   1.000  I 
  I22      1.0000 0.29100  0.94100  0.24300  Biso   1.000  I 
  I23      1.0000 0.70900  0.44100  0.75700  Biso   1.000  I 
  I24      1.0000 0.79100  0.55900  0.25700  Biso   1.000  I 
  I25      1.0000 0.72300  0.85000  0.73800  Biso   1.000  I 
  I26      1.0000 0.77700  0.15000  0.23800  Biso   1.000  I 
  I27      1.0000 0.22300  0.65000  0.76200  Biso   1.000  I 
  I28      1.0000 0.27700  0.35000  0.26200  Biso   1.000  I 
  I29      1.0000 0.27700  0.15000  0.26200  Biso   1.000  I 
  I30      1.0000 0.22300  0.85000  0.76200  Biso   1.000  I 
  I31      1.0000 0.77700  0.35000  0.23800  Biso   1.000  I 
  I32      1.0000 0.72300  0.65000  0.73800  Biso   1.000  I 
  I33      1.0000 0.95900  0.94300  0.75000  Biso   1.000  I 
  I34      1.0000 0.54100  0.05730  0.25000  Biso   1.000  I 
  I35      1.0000 0.45900  0.55700  0.75000  Biso   1.000  I 
  I36      1.0000 0.04050  0.44300  0.25000  Biso   1.000  I 
  I37      1.0000 0.04050  0.05730  0.25000  Biso   1.000  I 
  I38      1.0000 0.45900  0.94300  0.75000  Biso   1.000  I 
  I39      1.0000 0.54100  0.44300  0.25000  Biso   1.000  I 
  I40      1.0000 0.95900  0.55700  0.75000  Biso   1.000  I 
  Ta1      1.0000 0.87500  0.86000  0.50500  Biso   1.000  Ta
  Ta2      1.0000 0.62500  0.14000  0.00457  Biso   1.000  Ta
  Ta3      1.0000 0.37500  0.64000  0.99500  Biso   1.000  Ta
  Ta4      1.0000 0.12500  0.36000  0.49500  Biso   1.000  Ta
  Ta5      1.0000 0.12500  0.14000  0.49500  Biso   1.000  Ta
  Ta6      1.0000 0.37500  0.86000  0.99500  Biso   1.000  Ta
  Ta7      1.0000 0.62500  0.36000  0.00457  Biso   1.000  Ta
  Ta8      1.0000 0.87500  0.64000  0.50500  Biso   1.000  Ta
