data_image0
_cell_length_a       13.0319
_cell_length_b       13.0319
_cell_length_c       13.0319
_cell_angle_alpha    60
_cell_angle_beta     60
_cell_angle_gamma    60

_symmetry_space_group_name_H-M    "P 1"
_symmetry_int_tables_number       1

loop_
  _symmetry_equiv_pos_as_xyz
  'x, y, z'

loop_
  _atom_site_label
  _atom_site_occupancy
  _atom_site_fract_x
  _atom_site_fract_y
  _atom_site_fract_z
  _atom_site_thermal_displace_type
  _atom_site_B_iso_or_equiv
  _atom_site_type_symbol
  In1      1.0000 0.66900  0.33100  0.33100  Biso   1.000  In
  In2      1.0000 0.33100  0.66900  0.66900  Biso   1.000  In
  In3      1.0000 0.33100  0.66900  0.33100  Biso   1.000  In
  In4      1.0000 0.33100  0.33100  0.66900  Biso   1.000  In
  In5      1.0000 0.66900  0.33100  0.66900  Biso   1.000  In
  In6      1.0000 0.66900  0.66900  0.33100  Biso   1.000  In
  In7      1.0000 0.99500  0.99500  0.34600  Biso   1.000  In
  In8      1.0000 0.99500  0.99500  0.66300  Biso   1.000  In
  In9      1.0000 0.66300  0.34600  0.99500  Biso   1.000  In
  In10     1.0000 0.34600  0.66300  0.99500  Biso   1.000  In
  In11     1.0000 0.34600  0.99500  0.99500  Biso   1.000  In
  In12     1.0000 0.99500  0.34600  0.99500  Biso   1.000  In
  In13     1.0000 0.99500  0.34600  0.66300  Biso   1.000  In
  In14     1.0000 0.99500  0.66300  0.99500  Biso   1.000  In
  In15     1.0000 0.66300  0.99500  0.99500  Biso   1.000  In
  In16     1.0000 0.34600  0.99500  0.66300  Biso   1.000  In
  In17     1.0000 0.99500  0.66300  0.34600  Biso   1.000  In
  In18     1.0000 0.66300  0.99500  0.34600  Biso   1.000  In
  Te1      1.0000 0.25000  0.25000  0.25000  Biso   1.000  Te
  Te2      1.0000 0.59700  0.59700  0.59700  Biso   1.000  Te
  Te3      1.0000 0.59700  0.59700  0.21000  Biso   1.000  Te
  Te4      1.0000 0.21000  0.59700  0.59700  Biso   1.000  Te
  Te5      1.0000 0.59700  0.21000  0.59700  Biso   1.000  Te
  Te6      1.0000 0.92800  0.92800  0.92800  Biso   1.000  Te
  Te7      1.0000 0.92800  0.92800  0.21600  Biso   1.000  Te
  Te8      1.0000 0.21600  0.92800  0.92800  Biso   1.000  Te
  Te9      1.0000 0.92800  0.21600  0.92800  Biso   1.000  Te
  Te10     1.0000 0.60400  0.60400  0.89600  Biso   1.000  Te
  Te11     1.0000 0.89600  0.89600  0.60400  Biso   1.000  Te
  Te12     1.0000 0.89600  0.60400  0.60400  Biso   1.000  Te
  Te13     1.0000 0.60400  0.89600  0.60400  Biso   1.000  Te
  Te14     1.0000 0.60400  0.89600  0.89600  Biso   1.000  Te
  Te15     1.0000 0.89600  0.60400  0.89600  Biso   1.000  Te
  Te16     1.0000 0.26100  0.26100  0.93400  Biso   1.000  Te
  Te17     1.0000 0.26100  0.26100  0.54400  Biso   1.000  Te
  Te18     1.0000 0.54400  0.93400  0.26100  Biso   1.000  Te
  Te19     1.0000 0.93400  0.54400  0.26100  Biso   1.000  Te
  Te20     1.0000 0.93400  0.26100  0.26100  Biso   1.000  Te
  Te21     1.0000 0.26100  0.93400  0.26100  Biso   1.000  Te
  Te22     1.0000 0.26100  0.93400  0.54400  Biso   1.000  Te
  Te23     1.0000 0.26100  0.54400  0.26100  Biso   1.000  Te
  Te24     1.0000 0.54400  0.26100  0.26100  Biso   1.000  Te
  Te25     1.0000 0.93400  0.26100  0.54400  Biso   1.000  Te
  Te26     1.0000 0.26100  0.54400  0.93400  Biso   1.000  Te
  Te27     1.0000 0.54400  0.26100  0.93400  Biso   1.000  Te
