data_image0
_cell_length_a       8.23802
_cell_length_b       6.10445
_cell_length_c       10.824
_cell_angle_alpha    90
_cell_angle_beta     90
_cell_angle_gamma    90

_symmetry_space_group_name_H-M    "P 1"
_symmetry_int_tables_number       1

loop_
  _symmetry_equiv_pos_as_xyz
  'x, y, z'

loop_
  _atom_site_label
  _atom_site_occupancy
  _atom_site_fract_x
  _atom_site_fract_y
  _atom_site_fract_z
  _atom_site_thermal_displace_type
  _atom_site_B_iso_or_equiv
  _atom_site_type_symbol
  Cs1      1.0000 0.65700  0.25000  0.40800  Biso   1.000  Cs
  Cs2      1.0000 0.84300  0.75000  0.90800  Biso   1.000  Cs
  Cs3      1.0000 0.15700  0.25000  0.09230  Biso   1.000  Cs
  Cs4      1.0000 0.34300  0.75000  0.59200  Biso   1.000  Cs
  Cs5      1.0000 0.48200  0.25000  0.80700  Biso   1.000  Cs
  Cs6      1.0000 0.01780  0.75000  0.30700  Biso   1.000  Cs
  Cs7      1.0000 0.98200  0.25000  0.69300  Biso   1.000  Cs
  Cs8      1.0000 0.51800  0.75000  0.19300  Biso   1.000  Cs
  O1       1.0000 0.31500  0.48900  0.34800  Biso   1.000  O 
  O2       1.0000 0.18500  0.51100  0.84800  Biso   1.000  O 
  O3       1.0000 0.81500  0.01140  0.15200  Biso   1.000  O 
  O4       1.0000 0.68500  0.98900  0.65200  Biso   1.000  O 
  O5       1.0000 0.68500  0.51100  0.65200  Biso   1.000  O 
  O6       1.0000 0.81500  0.48900  0.15200  Biso   1.000  O 
  O7       1.0000 0.18500  0.98900  0.84800  Biso   1.000  O 
  O8       1.0000 0.31500  0.01140  0.34800  Biso   1.000  O 
  O9       1.0000 0.01180  0.25000  0.40700  Biso   1.000  O 
  O10      1.0000 0.48800  0.75000  0.90700  Biso   1.000  O 
  O11      1.0000 0.51200  0.25000  0.09340  Biso   1.000  O 
  O12      1.0000 0.98800  0.75000  0.59300  Biso   1.000  O 
  O13      1.0000 0.30200  0.25000  0.57500  Biso   1.000  O 
  O14      1.0000 0.19800  0.75000  0.07500  Biso   1.000  O 
  O15      1.0000 0.80200  0.25000  0.92500  Biso   1.000  O 
  O16      1.0000 0.69800  0.75000  0.42500  Biso   1.000  O 
  Ru1      1.0000 0.22900  0.25000  0.41800  Biso   1.000  Ru
  Ru2      1.0000 0.27100  0.75000  0.91800  Biso   1.000  Ru
  Ru3      1.0000 0.72900  0.25000  0.08160  Biso   1.000  Ru
  Ru4      1.0000 0.77100  0.75000  0.58200  Biso   1.000  Ru
