data_image0
_cell_length_a       2.96263
_cell_length_b       3.04029
_cell_length_c       4.28614
_cell_angle_alpha    69.2271
_cell_angle_beta     90
_cell_angle_gamma    90

_symmetry_space_group_name_H-M    "P 1"
_symmetry_int_tables_number       1

loop_
  _symmetry_equiv_pos_as_xyz
  'x, y, z'

loop_
  _atom_site_label
  _atom_site_occupancy
  _atom_site_fract_x
  _atom_site_fract_y
  _atom_site_fract_z
  _atom_site_thermal_displace_type
  _atom_site_B_iso_or_equiv
  _atom_site_type_symbol
  B1       1.0000 0.75000  0.43800  0.12400  Biso   1.000  B 
  B2       1.0000 0.25000  0.56200  0.87600  Biso   1.000  B 
  V1       1.0000 0.25000  0.85200  0.29600  Biso   1.000  V 
  V2       1.0000 0.75000  0.14800  0.70400  Biso   1.000  V 
