data_image0
_cell_length_a       7.86954
_cell_length_b       7.99402
_cell_length_c       16.1226
_cell_angle_alpha    86.0134
_cell_angle_beta     92.111
_cell_angle_gamma    92.0303

_symmetry_space_group_name_H-M    "P 1"
_symmetry_int_tables_number       1

loop_
  _symmetry_equiv_pos_as_xyz
  'x, y, z'

loop_
  _atom_site_label
  _atom_site_occupancy
  _atom_site_fract_x
  _atom_site_fract_y
  _atom_site_fract_z
  _atom_site_thermal_displace_type
  _atom_site_B_iso_or_equiv
  _atom_site_type_symbol
  Hf1      1.0000 0.12000  0.86800  0.11400  Biso   1.000  Hf
  Hf2      1.0000 0.88000  0.13200  0.88600  Biso   1.000  Hf
  Hf3      1.0000 0.35900  0.13100  0.31200  Biso   1.000  Hf
  Hf4      1.0000 0.64100  0.86900  0.68800  Biso   1.000  Hf
  I1       1.0000 0.65500  0.31500  0.30700  Biso   1.000  I 
  I2       1.0000 0.34500  0.68500  0.69300  Biso   1.000  I 
  I3       1.0000 0.30300  0.20500  0.13700  Biso   1.000  I 
  I4       1.0000 0.69700  0.79500  0.86300  Biso   1.000  I 
  I5       1.0000 0.03810  0.91500  0.28200  Biso   1.000  I 
  I6       1.0000 0.96200  0.08520  0.71800  Biso   1.000  I 
  I7       1.0000 0.92000  0.58700  0.10900  Biso   1.000  I 
  I8       1.0000 0.07990  0.41300  0.89100  Biso   1.000  I 
  I9       1.0000 0.18300  0.32000  0.40800  Biso   1.000  I 
  I10      1.0000 0.81700  0.68000  0.59200  Biso   1.000  I 
  I11      1.0000 0.48400  0.85300  0.39300  Biso   1.000  I 
  I12      1.0000 0.51600  0.14700  0.60700  Biso   1.000  I 
  I13      1.0000 0.42200  0.71700  0.14200  Biso   1.000  I 
  I14      1.0000 0.57800  0.28300  0.85800  Biso   1.000  I 
  I15      1.0000 0.81900  0.07810  0.06120  Biso   1.000  I 
  I16      1.0000 0.18100  0.92200  0.93900  Biso   1.000  I 
