data_image0
_cell_length_a       5.14091
_cell_length_b       8.8001
_cell_length_c       9.29235
_cell_angle_alpha    90
_cell_angle_beta     90
_cell_angle_gamma    90

_symmetry_space_group_name_H-M    "P 1"
_symmetry_int_tables_number       1

loop_
  _symmetry_equiv_pos_as_xyz
  'x, y, z'

loop_
  _atom_site_label
  _atom_site_occupancy
  _atom_site_fract_x
  _atom_site_fract_y
  _atom_site_fract_z
  _atom_site_thermal_displace_type
  _atom_site_B_iso_or_equiv
  _atom_site_type_symbol
  C1       1.0000 0.49100  0.01450  0.09700  Biso   1.000  C 
  C2       1.0000 0.50900  0.51400  0.40300  Biso   1.000  C 
  C3       1.0000 0.00897  0.98600  0.59700  Biso   1.000  C 
  C4       1.0000 0.99100  0.48600  0.90300  Biso   1.000  C 
  O1       1.0000 0.98300  0.47100  0.04340  Biso   1.000  O 
  O2       1.0000 0.46100  0.68600  0.07520  Biso   1.000  O 
  O3       1.0000 0.71200  0.01290  0.16200  Biso   1.000  O 
  O4       1.0000 0.27500  0.00341  0.16800  Biso   1.000  O 
  O5       1.0000 0.72500  0.50300  0.33200  Biso   1.000  O 
  O6       1.0000 0.28800  0.51300  0.33800  Biso   1.000  O 
  O7       1.0000 0.53900  0.18600  0.42500  Biso   1.000  O 
  O8       1.0000 0.01690  0.97100  0.45700  Biso   1.000  O 
  O9       1.0000 0.51700  0.52900  0.54300  Biso   1.000  O 
  O10      1.0000 0.03920  0.31400  0.57500  Biso   1.000  O 
  O11      1.0000 0.78800  0.98700  0.66200  Biso   1.000  O 
  O12      1.0000 0.22500  0.99700  0.66800  Biso   1.000  O 
  O13      1.0000 0.77500  0.49700  0.83200  Biso   1.000  O 
  O14      1.0000 0.21200  0.48700  0.83800  Biso   1.000  O 
  O15      1.0000 0.96100  0.81400  0.92500  Biso   1.000  O 
  O16      1.0000 0.48300  0.02860  0.95700  Biso   1.000  O 
  Pb1      1.0000 0.48800  0.43800  0.08720  Biso   1.000  Pb
  Pb2      1.0000 0.03170  0.74400  0.15500  Biso   1.000  Pb
  Pb3      1.0000 0.96800  0.24400  0.34500  Biso   1.000  Pb
  Pb4      1.0000 0.51200  0.93800  0.41300  Biso   1.000  Pb
  Pb5      1.0000 0.01240  0.56200  0.58700  Biso   1.000  Pb
  Pb6      1.0000 0.46800  0.25600  0.65500  Biso   1.000  Pb
  Pb7      1.0000 0.53200  0.75600  0.84500  Biso   1.000  Pb
  Pb8      1.0000 0.98800  0.06190  0.91300  Biso   1.000  Pb
