data_image0
_cell_length_a       4.14864
_cell_length_b       4.14864
_cell_length_c       12.4521
_cell_angle_alpha    90
_cell_angle_beta     90
_cell_angle_gamma    112.436

_symmetry_space_group_name_H-M    "P 1"
_symmetry_int_tables_number       1

loop_
  _symmetry_equiv_pos_as_xyz
  'x, y, z'

loop_
  _atom_site_label
  _atom_site_occupancy
  _atom_site_fract_x
  _atom_site_fract_y
  _atom_site_fract_z
  _atom_site_thermal_displace_type
  _atom_site_B_iso_or_equiv
  _atom_site_type_symbol
  Br1      1.0000 0.94000  0.05980  0.13300  Biso   1.000  Br
  Br2      1.0000 0.60700  0.39300  0.36700  Biso   1.000  Br
  Br3      1.0000 0.05980  0.94000  0.63300  Biso   1.000  Br
  Br4      1.0000 0.39300  0.60700  0.86700  Biso   1.000  Br
  Hg1      1.0000 0.66700  0.33300  1.00000  Biso   1.000  Hg
  Hg2      1.0000 0.33300  0.66700  0.50000  Biso   1.000  Hg
