data_image0
_cell_length_a       4.25016
_cell_length_b       4.25016
_cell_length_c       3.59883
_cell_angle_alpha    84.8807
_cell_angle_beta     95.1193
_cell_angle_gamma    99.9142

_symmetry_space_group_name_H-M    "P 1"
_symmetry_int_tables_number       1

loop_
  _symmetry_equiv_pos_as_xyz
  'x, y, z'

loop_
  _atom_site_label
  _atom_site_occupancy
  _atom_site_fract_x
  _atom_site_fract_y
  _atom_site_fract_z
  _atom_site_thermal_displace_type
  _atom_site_B_iso_or_equiv
  _atom_site_type_symbol
  K1       1.0000 0.10200  0.89800  0.93500  Biso   1.000  K 
  N1       1.0000 0.67900  0.32100  0.54200  Biso   1.000  N 
  O1       1.0000 0.57400  0.03490  0.45600  Biso   1.000  O 
  O2       1.0000 0.96500  0.42600  0.45600  Biso   1.000  O 
