data_image0
_cell_length_a       3.89911
_cell_length_b       6.00356
_cell_length_c       6.00356
_cell_angle_alpha    91.5073
_cell_angle_beta     108.949
_cell_angle_gamma    108.949

_symmetry_space_group_name_H-M    "P 1"
_symmetry_int_tables_number       1

loop_
  _symmetry_equiv_pos_as_xyz
  'x, y, z'

loop_
  _atom_site_label
  _atom_site_occupancy
  _atom_site_fract_x
  _atom_site_fract_y
  _atom_site_fract_z
  _atom_site_thermal_displace_type
  _atom_site_B_iso_or_equiv
  _atom_site_type_symbol
  Be1      1.0000 0.12200  0.83200  0.16800  Biso   1.000  Be
  Be2      1.0000 0.25000  0.25000  0.25000  Biso   1.000  Be
  Be3      1.0000 0.62200  0.66800  0.33200  Biso   1.000  Be
  Be4      1.0000 0.37800  0.33200  0.66800  Biso   1.000  Be
  Be5      1.0000 0.75000  0.75000  0.75000  Biso   1.000  Be
  Be6      1.0000 0.87800  0.16800  0.83200  Biso   1.000  Be
  H1       1.0000 0.90700  0.24600  0.06530  Biso   1.000  H 
  H2       1.0000 0.75600  0.82300  0.17700  Biso   1.000  H 
  H3       1.0000 0.40400  0.06530  0.24600  Biso   1.000  H 
  H4       1.0000 0.59300  0.43500  0.25400  Biso   1.000  H 
  H5       1.0000 0.25600  0.67700  0.32300  Biso   1.000  H 
  H6       1.0000 0.09600  0.25400  0.43500  Biso   1.000  H 
  H7       1.0000 0.90400  0.74600  0.56500  Biso   1.000  H 
  H8       1.0000 0.74400  0.32300  0.67700  Biso   1.000  H 
  H9       1.0000 0.40700  0.56500  0.74600  Biso   1.000  H 
  H10      1.0000 0.59600  0.93500  0.75400  Biso   1.000  H 
  H11      1.0000 0.24400  0.17700  0.82300  Biso   1.000  H 
  H12      1.0000 0.09310  0.75400  0.93500  Biso   1.000  H 
