data_image0
_cell_length_a       5.41199
_cell_length_b       5.41195
_cell_length_c       8.83782
_cell_angle_alpha    90
_cell_angle_beta     90
_cell_angle_gamma    120

_symmetry_space_group_name_H-M    "P 1"
_symmetry_int_tables_number       1

loop_
  _symmetry_equiv_pos_as_xyz
  'x, y, z'

loop_
  _atom_site_label
  _atom_site_occupancy
  _atom_site_fract_x
  _atom_site_fract_y
  _atom_site_fract_z
  _atom_site_thermal_displace_type
  _atom_site_B_iso_or_equiv
  _atom_site_type_symbol
  Re1      1.0000 0.00000  0.00000  0.00000  Biso   1.000  Re
  Re2      1.0000 0.34200  0.17100  0.25000  Biso   1.000  Re
  Re3      1.0000 0.82900  0.17100  0.25000  Biso   1.000  Re
  Re4      1.0000 0.82900  0.65800  0.25000  Biso   1.000  Re
  Re5      1.0000 0.00000  0.00000  0.50000  Biso   1.000  Re
  Re6      1.0000 0.17100  0.34200  0.75000  Biso   1.000  Re
  Re7      1.0000 0.17100  0.82900  0.75000  Biso   1.000  Re
  Re8      1.0000 0.65800  0.82900  0.75000  Biso   1.000  Re
  Y1       1.0000 0.33300  0.66700  0.06250  Biso   1.000  Y 
  Y2       1.0000 0.33300  0.66700  0.43800  Biso   1.000  Y 
  Y3       1.0000 0.66700  0.33300  0.56200  Biso   1.000  Y 
  Y4       1.0000 0.66700  0.33300  0.93800  Biso   1.000  Y 
