data_image0
_cell_length_a       4.96197
_cell_length_b       4.96197
_cell_length_c       6.90465
_cell_angle_alpha    90
_cell_angle_beta     90
_cell_angle_gamma    111.102

_symmetry_space_group_name_H-M    "P 1"
_symmetry_int_tables_number       1

loop_
  _symmetry_equiv_pos_as_xyz
  'x, y, z'

loop_
  _atom_site_label
  _atom_site_occupancy
  _atom_site_fract_x
  _atom_site_fract_y
  _atom_site_fract_z
  _atom_site_thermal_displace_type
  _atom_site_B_iso_or_equiv
  _atom_site_type_symbol
  As1      1.0000 0.64400  0.35600  0.25000  Biso   1.000  As
  As2      1.0000 0.35600  0.64400  0.75000  Biso   1.000  As
  In1      1.0000 0.00000  0.00000  0.00000  Biso   1.000  In
  In2      1.0000 0.00000  0.00000  0.50000  Biso   1.000  In
  O1       1.0000 0.74400  0.25600  0.03570  Biso   1.000  O 
  O2       1.0000 0.26700  0.22900  0.25000  Biso   1.000  O 
  O3       1.0000 0.77100  0.73300  0.25000  Biso   1.000  O 
  O4       1.0000 0.74400  0.25600  0.46400  Biso   1.000  O 
  O5       1.0000 0.25600  0.74400  0.53600  Biso   1.000  O 
  O6       1.0000 0.22900  0.26700  0.75000  Biso   1.000  O 
  O7       1.0000 0.73300  0.77100  0.75000  Biso   1.000  O 
  O8       1.0000 0.25600  0.74400  0.96400  Biso   1.000  O 
