data_image0
_cell_length_a       3.94242
_cell_length_b       7.51846
_cell_length_c       6.84286
_cell_angle_alpha    73.2808
_cell_angle_beta     90.7814
_cell_angle_gamma    82.5695

_symmetry_space_group_name_H-M    "P 1"
_symmetry_int_tables_number       1

loop_
  _symmetry_equiv_pos_as_xyz
  'x, y, z'

loop_
  _atom_site_label
  _atom_site_occupancy
  _atom_site_fract_x
  _atom_site_fract_y
  _atom_site_fract_z
  _atom_site_thermal_displace_type
  _atom_site_B_iso_or_equiv
  _atom_site_type_symbol
  C1       1.0000 0.32000  0.06060  0.18500  Biso   1.000  C 
  C2       1.0000 0.68800  0.42900  0.24100  Biso   1.000  C 
  C3       1.0000 0.81000  0.57100  0.25900  Biso   1.000  C 
  C4       1.0000 0.18100  0.93900  0.31400  Biso   1.000  C 
  C5       1.0000 0.81900  0.06060  0.68600  Biso   1.000  C 
  C6       1.0000 0.19000  0.42900  0.74100  Biso   1.000  C 
  C7       1.0000 0.31200  0.57100  0.75900  Biso   1.000  C 
  C8       1.0000 0.68000  0.93900  0.81500  Biso   1.000  C 
  Ca1      1.0000 0.25400  0.75500  0.02730  Biso   1.000  Ca
  Ca2      1.0000 0.24400  0.24600  0.47200  Biso   1.000  Ca
  Ca3      1.0000 0.75600  0.75400  0.52800  Biso   1.000  Ca
  Ca4      1.0000 0.74600  0.24500  0.97300  Biso   1.000  Ca
