data_image0
_cell_length_a       12.6198
_cell_length_b       12.6198
_cell_length_c       12.6198
_cell_angle_alpha    90
_cell_angle_beta     90
_cell_angle_gamma    90

_symmetry_space_group_name_H-M    "P 1"
_symmetry_int_tables_number       1

loop_
  _symmetry_equiv_pos_as_xyz
  'x, y, z'

loop_
  _atom_site_label
  _atom_site_occupancy
  _atom_site_fract_x
  _atom_site_fract_y
  _atom_site_fract_z
  _atom_site_thermal_displace_type
  _atom_site_B_iso_or_equiv
  _atom_site_type_symbol
  Ge1      1.0000 0.13200  0.13200  0.13200  Biso   1.000  Ge
  Ge2      1.0000 0.36800  0.63200  0.13200  Biso   1.000  Ge
  Ge3      1.0000 0.63200  0.13200  0.36800  Biso   1.000  Ge
  Ge4      1.0000 0.86800  0.63200  0.36800  Biso   1.000  Ge
  Ge5      1.0000 0.13200  0.36800  0.63200  Biso   1.000  Ge
  Ge6      1.0000 0.36800  0.86800  0.63200  Biso   1.000  Ge
  Ge7      1.0000 0.63200  0.36800  0.86800  Biso   1.000  Ge
  Ge8      1.0000 0.86800  0.86800  0.86800  Biso   1.000  Ge
  I1       1.0000 0.24900  0.02790  0.00498  Biso   1.000  I 
  I2       1.0000 0.25100  0.52800  0.00498  Biso   1.000  I 
  I3       1.0000 0.00498  0.24900  0.02790  Biso   1.000  I 
  I4       1.0000 0.49500  0.74900  0.02790  Biso   1.000  I 
  I5       1.0000 0.24800  0.24800  0.24800  Biso   1.000  I 
  I6       1.0000 0.25200  0.74800  0.24800  Biso   1.000  I 
  I7       1.0000 0.02790  0.00498  0.24900  Biso   1.000  I 
  I8       1.0000 0.47200  0.50500  0.24900  Biso   1.000  I 
  I9       1.0000 0.52800  0.00498  0.25100  Biso   1.000  I 
  I10      1.0000 0.97200  0.50500  0.25100  Biso   1.000  I 
  I11      1.0000 0.74800  0.24800  0.25200  Biso   1.000  I 
  I12      1.0000 0.75200  0.74800  0.25200  Biso   1.000  I 
  I13      1.0000 0.50500  0.24900  0.47200  Biso   1.000  I 
  I14      1.0000 0.99500  0.74900  0.47200  Biso   1.000  I 
  I15      1.0000 0.74900  0.02790  0.49500  Biso   1.000  I 
  I16      1.0000 0.75100  0.52800  0.49500  Biso   1.000  I 
  I17      1.0000 0.24900  0.47200  0.50500  Biso   1.000  I 
  I18      1.0000 0.25100  0.97200  0.50500  Biso   1.000  I 
  I19      1.0000 0.00498  0.25100  0.52800  Biso   1.000  I 
  I20      1.0000 0.49500  0.75100  0.52800  Biso   1.000  I 
  I21      1.0000 0.24800  0.25200  0.74800  Biso   1.000  I 
  I22      1.0000 0.25200  0.75200  0.74800  Biso   1.000  I 
  I23      1.0000 0.02790  0.49500  0.74900  Biso   1.000  I 
  I24      1.0000 0.47200  0.99500  0.74900  Biso   1.000  I 
  I25      1.0000 0.52800  0.49500  0.75100  Biso   1.000  I 
  I26      1.0000 0.97200  0.99500  0.75100  Biso   1.000  I 
  I27      1.0000 0.74800  0.25200  0.75200  Biso   1.000  I 
  I28      1.0000 0.75200  0.75200  0.75200  Biso   1.000  I 
  I29      1.0000 0.50500  0.25100  0.97200  Biso   1.000  I 
  I30      1.0000 0.99500  0.75100  0.97200  Biso   1.000  I 
  I31      1.0000 0.74900  0.47200  0.99500  Biso   1.000  I 
  I32      1.0000 0.75100  0.97200  0.99500  Biso   1.000  I 
