data_image0
_cell_length_a       3.98401
_cell_length_b       3.99177
_cell_length_c       6.03968
_cell_angle_alpha    90
_cell_angle_beta     89.9023
_cell_angle_gamma    120.065

_symmetry_space_group_name_H-M    "P 1"
_symmetry_int_tables_number       1

loop_
  _symmetry_equiv_pos_as_xyz
  'x, y, z'

loop_
  _atom_site_label
  _atom_site_occupancy
  _atom_site_fract_x
  _atom_site_fract_y
  _atom_site_fract_z
  _atom_site_thermal_displace_type
  _atom_site_B_iso_or_equiv
  _atom_site_type_symbol
  Ca1      1.0000 0.00000  0.00000  0.00000  Biso   1.000  Ca
  Ca2      1.0000 0.66700  0.33300  0.33500  Biso   1.000  Ca
  Ca3      1.0000 0.33300  0.66700  0.66500  Biso   1.000  Ca
  N1       1.0000 0.33400  0.66700  0.23800  Biso   1.000  N 
  N2       1.0000 0.66600  0.33300  0.76200  Biso   1.000  N 
