data_image0
_cell_length_a       12.3623
_cell_length_b       12.3623
_cell_length_c       12.3623
_cell_angle_alpha    125.86
_cell_angle_beta     156.515
_cell_angle_gamma    59.8035

_symmetry_space_group_name_H-M    "P 1"
_symmetry_int_tables_number       1

loop_
  _symmetry_equiv_pos_as_xyz
  'x, y, z'

loop_
  _atom_site_label
  _atom_site_occupancy
  _atom_site_fract_x
  _atom_site_fract_y
  _atom_site_fract_z
  _atom_site_thermal_displace_type
  _atom_site_B_iso_or_equiv
  _atom_site_type_symbol
  Ca1      1.0000 0.17000  0.18200  0.02010  Biso   1.000  Ca
  Ca2      1.0000 0.83000  0.85000  0.01220  Biso   1.000  Ca
  Ca3      1.0000 0.66200  0.68200  0.01220  Biso   1.000  Ca
  Ca4      1.0000 0.33800  0.35000  0.02010  Biso   1.000  Ca
  Ca5      1.0000 0.24900  0.53900  0.28800  Biso   1.000  Ca
  Ca6      1.0000 0.75100  0.03930  0.29100  Biso   1.000  Ca
  Ca7      1.0000 0.00000  0.98200  0.98200  Biso   1.000  Ca
  Ca8      1.0000 0.50000  0.48200  0.98200  Biso   1.000  Ca
  Ca9      1.0000 0.60300  0.32300  0.71800  Biso   1.000  Ca
  Ca10     1.0000 0.39700  0.11500  0.72000  Biso   1.000  Ca
  Ca11     1.0000 0.10500  0.82300  0.72000  Biso   1.000  Ca
  Ca12     1.0000 0.89500  0.61500  0.71800  Biso   1.000  Ca
  O1       1.0000 0.21600  0.19900  0.32300  Biso   1.000  O 
  O2       1.0000 0.78400  0.10700  0.98200  Biso   1.000  O 
  O3       1.0000 0.37600  0.69900  0.98200  Biso   1.000  O 
  O4       1.0000 0.62400  0.60700  0.32300  Biso   1.000  O 
  O5       1.0000 0.35700  0.49600  0.66400  Biso   1.000  O 
  O6       1.0000 0.64300  0.30700  0.13900  Biso   1.000  O 
  O7       1.0000 0.33200  0.99600  0.13900  Biso   1.000  O 
  O8       1.0000 0.66800  0.80700  0.66400  Biso   1.000  O 
  O9       1.0000 0.84400  0.36700  0.13200  Biso   1.000  O 
  O10      1.0000 0.15600  0.28800  0.52400  Biso   1.000  O 
  O11      1.0000 0.73600  0.86700  0.52400  Biso   1.000  O 
  O12      1.0000 0.26400  0.78800  0.13200  Biso   1.000  O 
  O13      1.0000 0.77900  0.12600  0.72800  Biso   1.000  O 
  O14      1.0000 0.22100  0.94900  0.34700  Biso   1.000  O 
  O15      1.0000 0.89800  0.62600  0.34700  Biso   1.000  O 
  O16      1.0000 0.10200  0.44900  0.72800  Biso   1.000  O 
  O17      1.0000 0.95800  0.50800  0.14600  Biso   1.000  O 
  O18      1.0000 0.04250  0.18800  0.55100  Biso   1.000  O 
  O19      1.0000 0.86200  0.00828  0.55100  Biso   1.000  O 
  O20      1.0000 0.13800  0.68800  0.14600  Biso   1.000  O 
  O21      1.0000 0.00167  0.35000  0.85200  Biso   1.000  O 
  O22      1.0000 0.99800  0.85000  0.34900  Biso   1.000  O 
  O23      1.0000 0.53800  0.21700  0.25400  Biso   1.000  O 
  O24      1.0000 0.46200  0.71700  0.67900  Biso   1.000  O 
  O25      1.0000 0.48400  0.35900  0.46300  Biso   1.000  O 
  O26      1.0000 0.51600  0.97900  0.87400  Biso   1.000  O 
  O27      1.0000 0.39600  0.85900  0.87400  Biso   1.000  O 
  O28      1.0000 0.60400  0.47900  0.46300  Biso   1.000  O 
  Si1      1.0000 0.00000  0.23400  0.23400  Biso   1.000  Si
  Si2      1.0000 0.50000  0.73400  0.23400  Biso   1.000  Si
  Si3      1.0000 0.04210  0.50800  0.35100  Biso   1.000  Si
  Si4      1.0000 0.95800  0.30900  0.46600  Biso   1.000  Si
  Si5      1.0000 0.65700  0.00772  0.46600  Biso   1.000  Si
  Si6      1.0000 0.34300  0.80900  0.35100  Biso   1.000  Si
  Si7      1.0000 0.67800  0.35000  0.52800  Biso   1.000  Si
  Si8      1.0000 0.32200  0.85000  0.67200  Biso   1.000  Si
