data_image0
_cell_length_a       7.74398
_cell_length_b       7.74398
_cell_length_c       5.39334
_cell_angle_alpha    90
_cell_angle_beta     90
_cell_angle_gamma    60.8133

_symmetry_space_group_name_H-M    "P 1"
_symmetry_int_tables_number       1

loop_
  _symmetry_equiv_pos_as_xyz
  'x, y, z'

loop_
  _atom_site_label
  _atom_site_occupancy
  _atom_site_fract_x
  _atom_site_fract_y
  _atom_site_fract_z
  _atom_site_thermal_displace_type
  _atom_site_B_iso_or_equiv
  _atom_site_type_symbol
  O1       1.0000 0.88400  0.38400  0.25000  Biso   1.000  O 
  O2       1.0000 0.61600  0.11600  0.75000  Biso   1.000  O 
  O3       1.0000 0.11600  0.61600  0.75000  Biso   1.000  O 
  O4       1.0000 0.38400  0.88400  0.25000  Biso   1.000  O 
  O5       1.0000 0.79900  0.79900  0.54300  Biso   1.000  O 
  O6       1.0000 0.70100  0.70100  0.04250  Biso   1.000  O 
  O7       1.0000 0.20100  0.20100  0.45700  Biso   1.000  O 
  O8       1.0000 0.29900  0.29900  0.95700  Biso   1.000  O 
  O9       1.0000 0.85500  0.14500  0.50000  Biso   1.000  O 
  O10      1.0000 0.64500  0.35500  0.00000  Biso   1.000  O 
  O11      1.0000 0.14500  0.85500  0.50000  Biso   1.000  O 
  O12      1.0000 0.35500  0.64500  0.00000  Biso   1.000  O 
  O13      1.0000 0.91300  0.91300  0.06300  Biso   1.000  O 
  O14      1.0000 0.58700  0.58700  0.56300  Biso   1.000  O 
  O15      1.0000 0.08650  0.08650  0.93700  Biso   1.000  O 
  O16      1.0000 0.41300  0.41300  0.43700  Biso   1.000  O 
  Pb1      1.0000 0.58000  0.08030  0.25000  Biso   1.000  Pb
  Pb2      1.0000 0.92000  0.42000  0.75000  Biso   1.000  Pb
  Pb3      1.0000 0.42000  0.92000  0.75000  Biso   1.000  Pb
  Pb4      1.0000 0.08030  0.58000  0.25000  Biso   1.000  Pb
  W1       1.0000 0.91500  0.91500  0.71800  Biso   1.000  W 
  W2       1.0000 0.41500  0.41500  0.78200  Biso   1.000  W 
  W3       1.0000 0.08470  0.08470  0.28200  Biso   1.000  W 
  W4       1.0000 0.58500  0.58500  0.21800  Biso   1.000  W 
