data_image0
_cell_length_a       8.00645
_cell_length_b       8.00645
_cell_length_c       5.58178
_cell_angle_alpha    90
_cell_angle_beta     90
_cell_angle_gamma    120

_symmetry_space_group_name_H-M    "P 1"
_symmetry_int_tables_number       1

loop_
  _symmetry_equiv_pos_as_xyz
  'x, y, z'

loop_
  _atom_site_label
  _atom_site_occupancy
  _atom_site_fract_x
  _atom_site_fract_y
  _atom_site_fract_z
  _atom_site_thermal_displace_type
  _atom_site_B_iso_or_equiv
  _atom_site_type_symbol
  Si1      1.0000 0.61100  0.00000  0.25000  Biso   1.000  Si
  Si2      1.0000 0.00000  0.61100  0.25000  Biso   1.000  Si
  Si3      1.0000 0.38900  0.38900  0.25000  Biso   1.000  Si
  Si4      1.0000 0.38900  0.00000  0.75000  Biso   1.000  Si
  Si5      1.0000 0.00000  0.38900  0.75000  Biso   1.000  Si
  Si6      1.0000 0.61100  0.61100  0.75000  Biso   1.000  Si
  Zr1      1.0000 0.66700  0.33300  0.00000  Biso   1.000  Zr
  Zr2      1.0000 0.33300  0.66700  0.00000  Biso   1.000  Zr
  Zr3      1.0000 0.25400  0.00000  0.25000  Biso   1.000  Zr
  Zr4      1.0000 0.00000  0.25400  0.25000  Biso   1.000  Zr
  Zr5      1.0000 0.74600  0.74600  0.25000  Biso   1.000  Zr
  Zr6      1.0000 0.66700  0.33300  0.50000  Biso   1.000  Zr
  Zr7      1.0000 0.33300  0.66700  0.50000  Biso   1.000  Zr
  Zr8      1.0000 0.74600  0.00000  0.75000  Biso   1.000  Zr
  Zr9      1.0000 0.00000  0.74600  0.75000  Biso   1.000  Zr
  Zr10     1.0000 0.25400  0.25400  0.75000  Biso   1.000  Zr
