data_image0
_cell_length_a       4.96585
_cell_length_b       4.96585
_cell_length_c       4.88274
_cell_angle_alpha    102.013
_cell_angle_beta     102.013
_cell_angle_gamma    33.6394

_symmetry_space_group_name_H-M    "P 1"
_symmetry_int_tables_number       1

loop_
  _symmetry_equiv_pos_as_xyz
  'x, y, z'

loop_
  _atom_site_label
  _atom_site_occupancy
  _atom_site_fract_x
  _atom_site_fract_y
  _atom_site_fract_z
  _atom_site_thermal_displace_type
  _atom_site_B_iso_or_equiv
  _atom_site_type_symbol
  Cr1      1.0000 0.50000  0.50000  0.50000  Biso   1.000  Cr
  Li1      1.0000 0.00000  0.00000  0.00000  Biso   1.000  Li
  Li2      1.0000 0.74500  0.74500  0.24200  Biso   1.000  Li
  Li3      1.0000 0.25500  0.25500  0.75800  Biso   1.000  Li
  O1       1.0000 0.38400  0.38400  0.15900  Biso   1.000  O 
  O2       1.0000 0.11300  0.11300  0.38600  Biso   1.000  O 
  O3       1.0000 0.88700  0.88700  0.61400  Biso   1.000  O 
  O4       1.0000 0.61600  0.61600  0.84100  Biso   1.000  O 
