data_image0
_cell_length_a       6.32833
_cell_length_b       4.40233
_cell_length_c       8.38386
_cell_angle_alpha    90
_cell_angle_beta     92.161
_cell_angle_gamma    90

_symmetry_space_group_name_H-M    "P 1"
_symmetry_int_tables_number       1

loop_
  _symmetry_equiv_pos_as_xyz
  'x, y, z'

loop_
  _atom_site_label
  _atom_site_occupancy
  _atom_site_fract_x
  _atom_site_fract_y
  _atom_site_fract_z
  _atom_site_thermal_displace_type
  _atom_site_B_iso_or_equiv
  _atom_site_type_symbol
  Hg1      1.0000 0.80800  0.93800  0.02750  Biso   1.000  Hg
  Hg2      1.0000 0.19200  0.93800  0.47200  Biso   1.000  Hg
  Hg3      1.0000 0.80800  0.06230  0.52800  Biso   1.000  Hg
  Hg4      1.0000 0.19200  0.06230  0.97200  Biso   1.000  Hg
  O1       1.0000 0.50000  0.75900  0.10400  Biso   1.000  O 
  O2       1.0000 0.30300  0.37700  0.24300  Biso   1.000  O 
  O3       1.0000 0.69700  0.37700  0.25700  Biso   1.000  O 
  O4       1.0000 0.50000  0.75900  0.39600  Biso   1.000  O 
  O5       1.0000 0.50000  0.24100  0.60400  Biso   1.000  O 
  O6       1.0000 0.30300  0.62300  0.74300  Biso   1.000  O 
  O7       1.0000 0.69700  0.62300  0.75700  Biso   1.000  O 
  O8       1.0000 0.50000  0.24100  0.89600  Biso   1.000  O 
  S1       1.0000 0.50000  0.55400  0.25000  Biso   1.000  S 
  S2       1.0000 0.50000  0.44600  0.75000  Biso   1.000  S 
