data_image0
_cell_length_a       5.44499
_cell_length_b       2.98276
_cell_length_c       4.11396
_cell_angle_alpha    90
_cell_angle_beta     90
_cell_angle_gamma    90

_symmetry_space_group_name_H-M    "P 1"
_symmetry_int_tables_number       1

loop_
  _symmetry_equiv_pos_as_xyz
  'x, y, z'

loop_
  _atom_site_label
  _atom_site_occupancy
  _atom_site_fract_x
  _atom_site_fract_y
  _atom_site_fract_z
  _atom_site_thermal_displace_type
  _atom_site_B_iso_or_equiv
  _atom_site_type_symbol
  B1       1.0000 0.46700  0.75000  0.11600  Biso   1.000  B 
  B2       1.0000 0.96700  0.75000  0.38400  Biso   1.000  B 
  B3       1.0000 0.03350  0.25000  0.61600  Biso   1.000  B 
  B4       1.0000 0.53300  0.25000  0.88400  Biso   1.000  B 
  Mn1      1.0000 0.17500  0.25000  0.12300  Biso   1.000  Mn
  Mn2      1.0000 0.67500  0.25000  0.37700  Biso   1.000  Mn
  Mn3      1.0000 0.32500  0.75000  0.62300  Biso   1.000  Mn
  Mn4      1.0000 0.82500  0.75000  0.87700  Biso   1.000  Mn
