data_image0
_cell_length_a       5.14885
_cell_length_b       9.0315
_cell_length_c       6.73296
_cell_angle_alpha    90
_cell_angle_beta     90
_cell_angle_gamma    90

_symmetry_space_group_name_H-M    "P 1"
_symmetry_int_tables_number       1

loop_
  _symmetry_equiv_pos_as_xyz
  'x, y, z'

loop_
  _atom_site_label
  _atom_site_occupancy
  _atom_site_fract_x
  _atom_site_fract_y
  _atom_site_fract_z
  _atom_site_thermal_displace_type
  _atom_site_B_iso_or_equiv
  _atom_site_type_symbol
  Ca1      1.0000 0.98100  0.35500  0.25000  Biso   1.000  Ca
  Ca2      1.0000 0.51900  0.85500  0.25000  Biso   1.000  Ca
  Ca3      1.0000 0.48100  0.14500  0.75000  Biso   1.000  Ca
  Ca4      1.0000 0.01920  0.64500  0.75000  Biso   1.000  Ca
  Mg1      1.0000 0.00000  0.00000  0.00000  Biso   1.000  Mg
  Mg2      1.0000 0.50000  0.50000  0.00000  Biso   1.000  Mg
  Mg3      1.0000 0.00000  0.00000  0.50000  Biso   1.000  Mg
  Mg4      1.0000 0.50000  0.50000  0.50000  Biso   1.000  Mg
  O1       1.0000 0.31500  0.11700  0.05750  Biso   1.000  O 
  O2       1.0000 0.18500  0.61700  0.05750  Biso   1.000  O 
  O3       1.0000 0.77400  0.12000  0.25000  Biso   1.000  O 
  O4       1.0000 0.44300  0.36200  0.25000  Biso   1.000  O 
  O5       1.0000 0.72600  0.62000  0.25000  Biso   1.000  O 
  O6       1.0000 0.05690  0.86200  0.25000  Biso   1.000  O 
  O7       1.0000 0.31500  0.11700  0.44300  Biso   1.000  O 
  O8       1.0000 0.18500  0.61700  0.44300  Biso   1.000  O 
  O9       1.0000 0.81500  0.38300  0.55700  Biso   1.000  O 
  O10      1.0000 0.68500  0.88300  0.55700  Biso   1.000  O 
  O11      1.0000 0.94300  0.13800  0.75000  Biso   1.000  O 
  O12      1.0000 0.27400  0.38000  0.75000  Biso   1.000  O 
  O13      1.0000 0.55700  0.63800  0.75000  Biso   1.000  O 
  O14      1.0000 0.22600  0.88000  0.75000  Biso   1.000  O 
  O15      1.0000 0.81500  0.38300  0.94300  Biso   1.000  O 
  O16      1.0000 0.68500  0.88300  0.94300  Biso   1.000  O 
  Si1      1.0000 0.47200  0.18000  0.25000  Biso   1.000  Si
  Si2      1.0000 0.02810  0.68000  0.25000  Biso   1.000  Si
  Si3      1.0000 0.97200  0.32000  0.75000  Biso   1.000  Si
  Si4      1.0000 0.52800  0.82000  0.75000  Biso   1.000  Si
