data_image0
_cell_length_a       8.46975
_cell_length_b       7.05184
_cell_length_c       4.01903
_cell_angle_alpha    90
_cell_angle_beta     90
_cell_angle_gamma    90

_symmetry_space_group_name_H-M    "P 1"
_symmetry_int_tables_number       1

loop_
  _symmetry_equiv_pos_as_xyz
  'x, y, z'

loop_
  _atom_site_label
  _atom_site_occupancy
  _atom_site_fract_x
  _atom_site_fract_y
  _atom_site_fract_z
  _atom_site_thermal_displace_type
  _atom_site_B_iso_or_equiv
  _atom_site_type_symbol
  S1       1.0000 0.43100  0.36000  0.25000  Biso   1.000  S 
  S2       1.0000 0.83300  0.46900  0.25000  Biso   1.000  S 
  S3       1.0000 0.06950  0.86000  0.25000  Biso   1.000  S 
  S4       1.0000 0.66700  0.96900  0.25000  Biso   1.000  S 
  S5       1.0000 0.33300  0.03050  0.75000  Biso   1.000  S 
  S6       1.0000 0.93100  0.14000  0.75000  Biso   1.000  S 
  S7       1.0000 0.16700  0.53100  0.75000  Biso   1.000  S 
  S8       1.0000 0.56900  0.64000  0.75000  Biso   1.000  S 
  U1       1.0000 0.12400  0.25000  0.25000  Biso   1.000  U 
  U2       1.0000 0.37600  0.75000  0.25000  Biso   1.000  U 
  U3       1.0000 0.62400  0.25000  0.75000  Biso   1.000  U 
  U4       1.0000 0.87600  0.75000  0.75000  Biso   1.000  U 
