data_image0
_cell_length_a       5.4079
_cell_length_b       5.40649
_cell_length_c       5.40649
_cell_angle_alpha    104.485
_cell_angle_beta     59.9914
_cell_angle_gamma    120.009

_symmetry_space_group_name_H-M    "P 1"
_symmetry_int_tables_number       1

loop_
  _symmetry_equiv_pos_as_xyz
  'x, y, z'

loop_
  _atom_site_label
  _atom_site_occupancy
  _atom_site_fract_x
  _atom_site_fract_y
  _atom_site_fract_z
  _atom_site_thermal_displace_type
  _atom_site_B_iso_or_equiv
  _atom_site_type_symbol
  Mn1      1.0000 0.25000  0.00000  0.00000  Biso   1.000  Mn
  Mn2      1.0000 0.75000  0.00000  0.00000  Biso   1.000  Mn
  Sn1      1.0000 0.16400  0.50000  0.17100  Biso   1.000  Sn
  Sn2      1.0000 0.33600  0.17100  0.50000  Biso   1.000  Sn
  Sn3      1.0000 0.66400  0.82900  0.50000  Biso   1.000  Sn
  Sn4      1.0000 0.83600  0.50000  0.82900  Biso   1.000  Sn
