data_image0
_cell_length_a       11.2559
_cell_length_b       10.1385
_cell_length_c       6.64181
_cell_angle_alpha    90
_cell_angle_beta     90
_cell_angle_gamma    90

_symmetry_space_group_name_H-M    "P 1"
_symmetry_int_tables_number       1

loop_
  _symmetry_equiv_pos_as_xyz
  'x, y, z'

loop_
  _atom_site_label
  _atom_site_occupancy
  _atom_site_fract_x
  _atom_site_fract_y
  _atom_site_fract_z
  _atom_site_thermal_displace_type
  _atom_site_B_iso_or_equiv
  _atom_site_type_symbol
  P1       1.0000 0.57500  0.25000  0.10400  Biso   1.000  P 
  P2       1.0000 0.66900  0.75000  0.17300  Biso   1.000  P 
  P3       1.0000 0.93000  0.13900  0.23700  Biso   1.000  P 
  P4       1.0000 0.93000  0.36100  0.23700  Biso   1.000  P 
  P5       1.0000 0.43000  0.13900  0.26300  Biso   1.000  P 
  P6       1.0000 0.43000  0.36100  0.26300  Biso   1.000  P 
  P7       1.0000 0.16900  0.75000  0.32700  Biso   1.000  P 
  P8       1.0000 0.07530  0.25000  0.39600  Biso   1.000  P 
  P9       1.0000 0.92500  0.75000  0.60400  Biso   1.000  P 
  P10      1.0000 0.83100  0.25000  0.67300  Biso   1.000  P 
  P11      1.0000 0.57000  0.63900  0.73700  Biso   1.000  P 
  P12      1.0000 0.57000  0.86100  0.73700  Biso   1.000  P 
  P13      1.0000 0.07040  0.63900  0.76300  Biso   1.000  P 
  P14      1.0000 0.07040  0.86100  0.76300  Biso   1.000  P 
  P15      1.0000 0.33100  0.25000  0.82700  Biso   1.000  P 
  P16      1.0000 0.42500  0.75000  0.89600  Biso   1.000  P 
  S1       1.0000 0.31000  0.09060  0.03000  Biso   1.000  S 
  S2       1.0000 0.31000  0.40900  0.03000  Biso   1.000  S 
  S3       1.0000 0.48100  0.75000  0.19800  Biso   1.000  S 
  S4       1.0000 0.98100  0.75000  0.30200  Biso   1.000  S 
  S5       1.0000 0.81000  0.09060  0.47000  Biso   1.000  S 
  S6       1.0000 0.81000  0.40900  0.47000  Biso   1.000  S 
  S7       1.0000 0.19000  0.59100  0.53000  Biso   1.000  S 
  S8       1.0000 0.19000  0.90900  0.53000  Biso   1.000  S 
  S9       1.0000 0.01920  0.25000  0.69800  Biso   1.000  S 
  S10      1.0000 0.51900  0.25000  0.80200  Biso   1.000  S 
  S11      1.0000 0.69000  0.59100  0.97000  Biso   1.000  S 
  S12      1.0000 0.69000  0.90900  0.97000  Biso   1.000  S 
