data_image0
_cell_length_a       4.0499
_cell_length_b       4.05054
_cell_length_c       7.09186
_cell_angle_alpha    90
_cell_angle_beta     90
_cell_angle_gamma    120.005

_symmetry_space_group_name_H-M    "P 1"
_symmetry_int_tables_number       1

loop_
  _symmetry_equiv_pos_as_xyz
  'x, y, z'

loop_
  _atom_site_label
  _atom_site_occupancy
  _atom_site_fract_x
  _atom_site_fract_y
  _atom_site_fract_z
  _atom_site_thermal_displace_type
  _atom_site_B_iso_or_equiv
  _atom_site_type_symbol
  F1       1.0000 0.66700  0.33300  0.07910  Biso   1.000  F 
  F2       1.0000 0.00002  0.00001  0.25000  Biso   1.000  F 
  F3       1.0000 0.66700  0.33300  0.42100  Biso   1.000  F 
  F4       1.0000 0.33300  0.66700  0.57900  Biso   1.000  F 
  F5       1.0000 0.00000  0.00000  0.75000  Biso   1.000  F 
  F6       1.0000 0.33300  0.66700  0.92100  Biso   1.000  F 
  Pu1      1.0000 0.33300  0.66700  0.25000  Biso   1.000  Pu
  Pu2      1.0000 0.66700  0.33300  0.75000  Biso   1.000  Pu
