data_image0
_cell_length_a       5.03
_cell_length_b       5.03
_cell_length_c       5.39189
_cell_angle_alpha    62.1965
_cell_angle_beta     117.804
_cell_angle_gamma    120

_symmetry_space_group_name_H-M    "P 1"
_symmetry_int_tables_number       1

loop_
  _symmetry_equiv_pos_as_xyz
  'x, y, z'

loop_
  _atom_site_label
  _atom_site_occupancy
  _atom_site_fract_x
  _atom_site_fract_y
  _atom_site_fract_z
  _atom_site_thermal_displace_type
  _atom_site_B_iso_or_equiv
  _atom_site_type_symbol
  Cr1      1.0000 0.35000  0.65000  0.04960  Biso   1.000  Cr
  Cr2      1.0000 0.15000  0.85000  0.45000  Biso   1.000  Cr
  Cr3      1.0000 0.85000  0.15000  0.55000  Biso   1.000  Cr
  Cr4      1.0000 0.65000  0.35000  0.95000  Biso   1.000  Cr
  O1       1.0000 0.05130  0.25000  0.25000  Biso   1.000  O 
  O2       1.0000 0.44900  0.94900  0.25000  Biso   1.000  O 
  O3       1.0000 0.75000  0.55100  0.25000  Biso   1.000  O 
  O4       1.0000 0.25000  0.44900  0.75000  Biso   1.000  O 
  O5       1.0000 0.55100  0.05130  0.75000  Biso   1.000  O 
  O6       1.0000 0.94900  0.75000  0.75000  Biso   1.000  O 
