data_image0
_cell_length_a       7.62264
_cell_length_b       7.62264
_cell_length_c       7.95345
_cell_angle_alpha    59.0812
_cell_angle_beta     120.919
_cell_angle_gamma    96.1762

_symmetry_space_group_name_H-M    "P 1"
_symmetry_int_tables_number       1

loop_
  _symmetry_equiv_pos_as_xyz
  'x, y, z'

loop_
  _atom_site_label
  _atom_site_occupancy
  _atom_site_fract_x
  _atom_site_fract_y
  _atom_site_fract_z
  _atom_site_thermal_displace_type
  _atom_site_B_iso_or_equiv
  _atom_site_type_symbol
  F1       1.0000 0.50000  0.00000  0.00000  Biso   1.000  F 
  F2       1.0000 0.00000  0.50000  0.50000  Biso   1.000  F 
  F3       1.0000 0.62300  0.62300  0.25000  Biso   1.000  F 
  F4       1.0000 0.37700  0.37700  0.75000  Biso   1.000  F 
  F5       1.0000 0.01110  0.48200  0.87200  Biso   1.000  F 
  F6       1.0000 0.48200  0.01110  0.62800  Biso   1.000  F 
  F7       1.0000 0.98900  0.51800  0.12800  Biso   1.000  F 
  F8       1.0000 0.51800  0.98900  0.37200  Biso   1.000  F 
  F9       1.0000 0.95400  0.11200  0.04670  Biso   1.000  F 
  F10      1.0000 0.11200  0.95400  0.45300  Biso   1.000  F 
  F11      1.0000 0.04650  0.88800  0.95300  Biso   1.000  F 
  F12      1.0000 0.88800  0.04650  0.54700  Biso   1.000  F 
  F13      1.0000 0.25900  0.76200  0.89700  Biso   1.000  F 
  F14      1.0000 0.76200  0.25900  0.60300  Biso   1.000  F 
  F15      1.0000 0.74100  0.23800  0.10300  Biso   1.000  F 
  F16      1.0000 0.23800  0.74100  0.39700  Biso   1.000  F 
  F17      1.0000 0.62300  0.55900  0.62800  Biso   1.000  F 
  F18      1.0000 0.55900  0.62300  0.87200  Biso   1.000  F 
  F19      1.0000 0.37700  0.44100  0.37200  Biso   1.000  F 
  F20      1.0000 0.44100  0.37700  0.12800  Biso   1.000  F 
  F21      1.0000 0.83900  0.77100  0.49400  Biso   1.000  F 
  F22      1.0000 0.77100  0.83900  0.00648  Biso   1.000  F 
  F23      1.0000 0.16100  0.22900  0.50600  Biso   1.000  F 
  F24      1.0000 0.22900  0.16100  0.99400  Biso   1.000  F 
  U1       1.0000 0.21600  0.21600  0.25000  Biso   1.000  U 
  U2       1.0000 0.78400  0.78400  0.75000  Biso   1.000  U 
  U3       1.0000 0.62100  0.20000  0.79800  Biso   1.000  U 
  U4       1.0000 0.20000  0.62100  0.70200  Biso   1.000  U 
  U5       1.0000 0.37900  0.80000  0.20200  Biso   1.000  U 
  U6       1.0000 0.80000  0.37900  0.29800  Biso   1.000  U 
