data_image0
_cell_length_a       11.2889
_cell_length_b       17.3985
_cell_length_c       5.93452
_cell_angle_alpha    90
_cell_angle_beta     90
_cell_angle_gamma    90

_symmetry_space_group_name_H-M    "P 1"
_symmetry_int_tables_number       1

loop_
  _symmetry_equiv_pos_as_xyz
  'x, y, z'

loop_
  _atom_site_label
  _atom_site_occupancy
  _atom_site_fract_x
  _atom_site_fract_y
  _atom_site_fract_z
  _atom_site_thermal_displace_type
  _atom_site_B_iso_or_equiv
  _atom_site_type_symbol
  Cl1      1.0000 0.24500  0.44600  0.90900  Biso   1.000  Cl
  Cl2      1.0000 0.25500  0.55400  0.40900  Biso   1.000  Cl
  Cl3      1.0000 0.74500  0.05450  0.59100  Biso   1.000  Cl
  Cl4      1.0000 0.75500  0.94600  0.09100  Biso   1.000  Cl
  Cl5      1.0000 0.75500  0.55400  0.09100  Biso   1.000  Cl
  Cl6      1.0000 0.74500  0.44600  0.59100  Biso   1.000  Cl
  Cl7      1.0000 0.25500  0.94600  0.40900  Biso   1.000  Cl
  Cl8      1.0000 0.24500  0.05450  0.90900  Biso   1.000  Cl
  Cl9      1.0000 0.00293  0.44500  0.25600  Biso   1.000  Cl
  Cl10     1.0000 0.49700  0.55500  0.75600  Biso   1.000  Cl
  Cl11     1.0000 0.50300  0.05500  0.24400  Biso   1.000  Cl
  Cl12     1.0000 0.99700  0.94500  0.74400  Biso   1.000  Cl
  Cl13     1.0000 0.99700  0.55500  0.74400  Biso   1.000  Cl
  Cl14     1.0000 0.50300  0.44500  0.24400  Biso   1.000  Cl
  Cl15     1.0000 0.49700  0.94500  0.75600  Biso   1.000  Cl
  Cl16     1.0000 0.00293  0.05500  0.25600  Biso   1.000  Cl
  Cl17     1.0000 0.01060  0.25000  0.24700  Biso   1.000  Cl
  Cl18     1.0000 0.48900  0.75000  0.74700  Biso   1.000  Cl
  Cl19     1.0000 0.51100  0.25000  0.25300  Biso   1.000  Cl
  Cl20     1.0000 0.98900  0.75000  0.75300  Biso   1.000  Cl
  Cl21     1.0000 0.24000  0.25000  0.92000  Biso   1.000  Cl
  Cl22     1.0000 0.26000  0.75000  0.42000  Biso   1.000  Cl
  Cl23     1.0000 0.74000  0.25000  0.58000  Biso   1.000  Cl
  Cl24     1.0000 0.76000  0.75000  0.07990  Biso   1.000  Cl
  Cl25     1.0000 0.24500  0.34900  0.39000  Biso   1.000  Cl
  Cl26     1.0000 0.25500  0.65100  0.89000  Biso   1.000  Cl
  Cl27     1.0000 0.74500  0.15100  0.11000  Biso   1.000  Cl
  Cl28     1.0000 0.75500  0.84900  0.61000  Biso   1.000  Cl
  Cl29     1.0000 0.75500  0.65100  0.61000  Biso   1.000  Cl
  Cl30     1.0000 0.74500  0.34900  0.11000  Biso   1.000  Cl
  Cl31     1.0000 0.25500  0.84900  0.89000  Biso   1.000  Cl
  Cl32     1.0000 0.24500  0.15100  0.39000  Biso   1.000  Cl
  Cl33     1.0000 0.00264  0.34900  0.77600  Biso   1.000  Cl
  Cl34     1.0000 0.49700  0.65100  0.27600  Biso   1.000  Cl
  Cl35     1.0000 0.50300  0.15100  0.72400  Biso   1.000  Cl
  Cl36     1.0000 0.99700  0.84900  0.22400  Biso   1.000  Cl
  Cl37     1.0000 0.99700  0.65100  0.22400  Biso   1.000  Cl
  Cl38     1.0000 0.50300  0.34900  0.72400  Biso   1.000  Cl
  Cl39     1.0000 0.49700  0.84900  0.27600  Biso   1.000  Cl
  Cl40     1.0000 0.00264  0.15100  0.77600  Biso   1.000  Cl
  Mo1      1.0000 0.12500  0.36100  0.08270  Biso   1.000  Mo
  Mo2      1.0000 0.37500  0.63900  0.58300  Biso   1.000  Mo
  Mo3      1.0000 0.62500  0.13900  0.41700  Biso   1.000  Mo
  Mo4      1.0000 0.87500  0.86100  0.91700  Biso   1.000  Mo
  Mo5      1.0000 0.87500  0.63900  0.91700  Biso   1.000  Mo
  Mo6      1.0000 0.62500  0.36100  0.41700  Biso   1.000  Mo
  Mo7      1.0000 0.37500  0.86100  0.58300  Biso   1.000  Mo
  Mo8      1.0000 0.12500  0.13900  0.08270  Biso   1.000  Mo
