data_image0
_cell_length_a       5.46644
_cell_length_b       5.46644
_cell_length_c       5.46644
_cell_angle_alpha    110.915
_cell_angle_beta     69.0847
_cell_angle_gamma    110.915

_symmetry_space_group_name_H-M    "P 1"
_symmetry_int_tables_number       1

loop_
  _symmetry_equiv_pos_as_xyz
  'x, y, z'

loop_
  _atom_site_label
  _atom_site_occupancy
  _atom_site_fract_x
  _atom_site_fract_y
  _atom_site_fract_z
  _atom_site_thermal_displace_type
  _atom_site_B_iso_or_equiv
  _atom_site_type_symbol
  B1       1.0000 0.01440  0.67700  0.01440  Biso   1.000  B 
  B2       1.0000 0.32300  0.98600  0.01440  Biso   1.000  B 
  B3       1.0000 0.17800  0.27500  0.17800  Biso   1.000  B 
  B4       1.0000 0.72500  0.82200  0.17800  Biso   1.000  B 
  B5       1.0000 0.82200  0.17800  0.27500  Biso   1.000  B 
  B6       1.0000 0.01440  0.98600  0.32300  Biso   1.000  B 
  B7       1.0000 0.98600  0.01440  0.67700  Biso   1.000  B 
  B8       1.0000 0.17800  0.82200  0.72500  Biso   1.000  B 
  B9       1.0000 0.82200  0.72500  0.82200  Biso   1.000  B 
  B10      1.0000 0.27500  0.17800  0.82200  Biso   1.000  B 
  B11      1.0000 0.98600  0.32300  0.98600  Biso   1.000  B 
  B12      1.0000 0.67700  0.01440  0.98600  Biso   1.000  B 
  Si1      1.0000 0.32400  0.67600  0.32400  Biso   1.000  Si
  Si2      1.0000 0.50000  0.50000  0.50000  Biso   1.000  Si
  Si3      1.0000 0.67600  0.32400  0.67600  Biso   1.000  Si
