data_image0
_cell_length_a       5.60072
_cell_length_b       5.1404
_cell_length_c       3.36319
_cell_angle_alpha    90
_cell_angle_beta     90
_cell_angle_gamma    90

_symmetry_space_group_name_H-M    "P 1"
_symmetry_int_tables_number       1

loop_
  _symmetry_equiv_pos_as_xyz
  'x, y, z'

loop_
  _atom_site_label
  _atom_site_occupancy
  _atom_site_fract_x
  _atom_site_fract_y
  _atom_site_fract_z
  _atom_site_thermal_displace_type
  _atom_site_B_iso_or_equiv
  _atom_site_type_symbol
  Ni1      1.0000 0.18800  0.00877  0.25000  Biso   1.000  Ni
  Ni2      1.0000 0.31200  0.50900  0.25000  Biso   1.000  Ni
  Ni3      1.0000 0.68800  0.49100  0.75000  Biso   1.000  Ni
  Ni4      1.0000 0.81200  0.99100  0.75000  Biso   1.000  Ni
  Si1      1.0000 0.58400  0.17900  0.25000  Biso   1.000  Si
  Si2      1.0000 0.91600  0.67900  0.25000  Biso   1.000  Si
  Si3      1.0000 0.08430  0.32100  0.75000  Biso   1.000  Si
  Si4      1.0000 0.41600  0.82100  0.75000  Biso   1.000  Si
