data_image0
_cell_length_a       4.89781
_cell_length_b       8.84097
_cell_length_c       12.5049
_cell_angle_alpha    69.5287
_cell_angle_beta     89.9437
_cell_angle_gamma    89.0468

_symmetry_space_group_name_H-M    "P 1"
_symmetry_int_tables_number       1

loop_
  _symmetry_equiv_pos_as_xyz
  'x, y, z'

loop_
  _atom_site_label
  _atom_site_occupancy
  _atom_site_fract_x
  _atom_site_fract_y
  _atom_site_fract_z
  _atom_site_thermal_displace_type
  _atom_site_B_iso_or_equiv
  _atom_site_type_symbol
  Cs1      1.0000 0.75600  0.91200  0.14700  Biso   1.000  Cs
  Cs2      1.0000 0.26500  0.07760  0.35400  Biso   1.000  Cs
  Cs3      1.0000 0.73500  0.92200  0.64600  Biso   1.000  Cs
  Cs4      1.0000 0.24400  0.08750  0.85300  Biso   1.000  Cs
  O1       1.0000 0.72600  0.61100  0.07780  Biso   1.000  O 
  O2       1.0000 0.23700  0.10000  0.09270  Biso   1.000  O 
  O3       1.0000 0.62500  0.30400  0.09760  Biso   1.000  O 
  O4       1.0000 0.12600  0.38600  0.12800  Biso   1.000  O 
  O5       1.0000 0.74600  0.37600  0.28000  Biso   1.000  O 
  O6       1.0000 0.71700  0.60900  0.36800  Biso   1.000  O 
  O7       1.0000 0.77900  0.89600  0.39400  Biso   1.000  O 
  O8       1.0000 0.12000  0.38800  0.42900  Biso   1.000  O 
  O9       1.0000 0.61800  0.29900  0.49700  Biso   1.000  O 
  O10      1.0000 0.38200  0.70100  0.50300  Biso   1.000  O 
  O11      1.0000 0.88000  0.61200  0.57100  Biso   1.000  O 
  O12      1.0000 0.22100  0.10400  0.60600  Biso   1.000  O 
  O13      1.0000 0.28300  0.39100  0.63200  Biso   1.000  O 
  O14      1.0000 0.25400  0.62400  0.72000  Biso   1.000  O 
  O15      1.0000 0.87400  0.61400  0.87200  Biso   1.000  O 
  O16      1.0000 0.37500  0.69600  0.90200  Biso   1.000  O 
  O17      1.0000 0.76300  0.90000  0.90700  Biso   1.000  O 
  O18      1.0000 0.27400  0.38900  0.92200  Biso   1.000  O 
  Si1      1.0000 0.30600  0.28400  0.06110  Biso   1.000  Si
  Si2      1.0000 0.80400  0.42100  0.14400  Biso   1.000  Si
  Si3      1.0000 0.79800  0.42000  0.39400  Biso   1.000  Si
  Si4      1.0000 0.70000  0.71500  0.45500  Biso   1.000  Si
  Si5      1.0000 0.30000  0.28500  0.54500  Biso   1.000  Si
  Si6      1.0000 0.20200  0.58000  0.60600  Biso   1.000  Si
  Si7      1.0000 0.19600  0.57900  0.85600  Biso   1.000  Si
  Si8      1.0000 0.69400  0.71600  0.93900  Biso   1.000  Si
