data_image0
_cell_length_a       6.59062
_cell_length_b       13.8109
_cell_length_c       15.8455
_cell_angle_alpha    90
_cell_angle_beta     90
_cell_angle_gamma    90

_symmetry_space_group_name_H-M    "P 1"
_symmetry_int_tables_number       1

loop_
  _symmetry_equiv_pos_as_xyz
  'x, y, z'

loop_
  _atom_site_label
  _atom_site_occupancy
  _atom_site_fract_x
  _atom_site_fract_y
  _atom_site_fract_z
  _atom_site_thermal_displace_type
  _atom_site_B_iso_or_equiv
  _atom_site_type_symbol
  Br1      1.0000 0.00047  0.25100  0.00000  Biso   1.000  Br
  Br2      1.0000 0.48500  0.42000  0.00000  Biso   1.000  Br
  Br3      1.0000 0.99500  0.74000  0.00000  Biso   1.000  Br
  Br4      1.0000 0.48300  0.93500  0.00000  Biso   1.000  Br
  Br5      1.0000 0.51600  0.67400  0.11900  Biso   1.000  Br
  Br6      1.0000 0.96400  0.99700  0.11900  Biso   1.000  Br
  Br7      1.0000 0.50100  0.17400  0.13200  Biso   1.000  Br
  Br8      1.0000 0.98400  0.49900  0.13200  Biso   1.000  Br
  Br9      1.0000 0.50600  0.41400  0.24900  Biso   1.000  Br
  Br10     1.0000 0.97800  0.25900  0.25000  Biso   1.000  Br
  Br11     1.0000 0.02150  0.75900  0.25000  Biso   1.000  Br
  Br12     1.0000 0.49400  0.91400  0.25100  Biso   1.000  Br
  Br13     1.0000 0.01600  0.99900  0.36800  Biso   1.000  Br
  Br14     1.0000 0.49900  0.67400  0.36800  Biso   1.000  Br
  Br15     1.0000 0.03610  0.49700  0.38100  Biso   1.000  Br
  Br16     1.0000 0.48400  0.17400  0.38100  Biso   1.000  Br
  Br17     1.0000 0.00523  0.24000  0.50000  Biso   1.000  Br
  Br18     1.0000 0.51700  0.43500  0.50000  Biso   1.000  Br
  Br19     1.0000 0.00000  0.75100  0.50000  Biso   1.000  Br
  Br20     1.0000 0.51500  0.92000  0.50000  Biso   1.000  Br
  Br21     1.0000 0.48400  0.17400  0.61900  Biso   1.000  Br
  Br22     1.0000 0.03610  0.49700  0.61900  Biso   1.000  Br
  Br23     1.0000 0.49900  0.67400  0.63200  Biso   1.000  Br
  Br24     1.0000 0.01600  0.99900  0.63200  Biso   1.000  Br
  Br25     1.0000 0.49400  0.91400  0.74900  Biso   1.000  Br
  Br26     1.0000 0.02150  0.75900  0.75000  Biso   1.000  Br
  Br27     1.0000 0.97800  0.25900  0.75000  Biso   1.000  Br
  Br28     1.0000 0.50600  0.41400  0.75100  Biso   1.000  Br
  Br29     1.0000 0.98400  0.49900  0.86800  Biso   1.000  Br
  Br30     1.0000 0.50100  0.17400  0.86800  Biso   1.000  Br
  Br31     1.0000 0.96400  0.99700  0.88100  Biso   1.000  Br
  Br32     1.0000 0.51600  0.67400  0.88100  Biso   1.000  Br
  Te1      1.0000 0.75000  0.06750  0.00000  Biso   1.000  Te
  Te2      1.0000 0.73100  0.60500  0.00000  Biso   1.000  Te
  Te3      1.0000 0.74300  0.33700  0.14200  Biso   1.000  Te
  Te4      1.0000 0.25700  0.83700  0.35800  Biso   1.000  Te
  Te5      1.0000 0.26900  0.10500  0.50000  Biso   1.000  Te
  Te6      1.0000 0.25000  0.56700  0.50000  Biso   1.000  Te
  Te7      1.0000 0.25700  0.83700  0.64200  Biso   1.000  Te
  Te8      1.0000 0.74300  0.33700  0.85800  Biso   1.000  Te
