data_image0
_cell_length_a       9.8355
_cell_length_b       4.10143
_cell_length_c       3.4792
_cell_angle_alpha    90
_cell_angle_beta     90
_cell_angle_gamma    90

_symmetry_space_group_name_H-M    "P 1"
_symmetry_int_tables_number       1

loop_
  _symmetry_equiv_pos_as_xyz
  'x, y, z'

loop_
  _atom_site_label
  _atom_site_occupancy
  _atom_site_fract_x
  _atom_site_fract_y
  _atom_site_fract_z
  _atom_site_thermal_displace_type
  _atom_site_B_iso_or_equiv
  _atom_site_type_symbol
  Ca1      1.0000 0.25000  0.25000  0.34600  Biso   1.000  Ca
  Ca2      1.0000 0.75000  0.75000  0.65400  Biso   1.000  Ca
  Cu1      1.0000 0.58300  0.25000  0.15400  Biso   1.000  Cu
  Cu2      1.0000 0.91700  0.25000  0.15400  Biso   1.000  Cu
  Cu3      1.0000 0.08320  0.75000  0.84600  Biso   1.000  Cu
  Cu4      1.0000 0.41700  0.75000  0.84600  Biso   1.000  Cu
  O1       1.0000 0.58000  0.75000  0.13000  Biso   1.000  O 
  O2       1.0000 0.92000  0.75000  0.13000  Biso   1.000  O 
  O3       1.0000 0.75000  0.25000  0.41000  Biso   1.000  O 
  O4       1.0000 0.25000  0.75000  0.59000  Biso   1.000  O 
  O5       1.0000 0.08050  0.25000  0.87000  Biso   1.000  O 
  O6       1.0000 0.42000  0.25000  0.87000  Biso   1.000  O 
