data_image0
_cell_length_a       4.11751
_cell_length_b       4.11754
_cell_length_c       17.0536
_cell_angle_alpha    90
_cell_angle_beta     90
_cell_angle_gamma    120

_symmetry_space_group_name_H-M    "P 1"
_symmetry_int_tables_number       1

loop_
  _symmetry_equiv_pos_as_xyz
  'x, y, z'

loop_
  _atom_site_label
  _atom_site_occupancy
  _atom_site_fract_x
  _atom_site_fract_y
  _atom_site_fract_z
  _atom_site_thermal_displace_type
  _atom_site_B_iso_or_equiv
  _atom_site_type_symbol
  Ga1      1.0000 0.33300  0.66700  0.17800  Biso   1.000  Ga
  Ga2      1.0000 0.33300  0.66700  0.32200  Biso   1.000  Ga
  Ga3      1.0000 0.66700  0.33300  0.67800  Biso   1.000  Ga
  Ga4      1.0000 0.66700  0.33300  0.82200  Biso   1.000  Ga
  Te1      1.0000 0.66700  0.33300  0.10200  Biso   1.000  Te
  Te2      1.0000 0.66700  0.33300  0.39800  Biso   1.000  Te
  Te3      1.0000 0.33300  0.66700  0.60200  Biso   1.000  Te
  Te4      1.0000 0.33300  0.66700  0.89800  Biso   1.000  Te
