data_image0
_cell_length_a       6.74605
_cell_length_b       6.74605
_cell_length_c       13.9862
_cell_angle_alpha    90
_cell_angle_beta     90
_cell_angle_gamma    63.8696

_symmetry_space_group_name_H-M    "P 1"
_symmetry_int_tables_number       1

loop_
  _symmetry_equiv_pos_as_xyz
  'x, y, z'

loop_
  _atom_site_label
  _atom_site_occupancy
  _atom_site_fract_x
  _atom_site_fract_y
  _atom_site_fract_z
  _atom_site_thermal_displace_type
  _atom_site_B_iso_or_equiv
  _atom_site_type_symbol
  Mo1      1.0000 0.24900  0.24900  0.07810  Biso   1.000  Mo
  Mo2      1.0000 0.25100  0.25100  0.57800  Biso   1.000  Mo
  Mo3      1.0000 0.75100  0.75100  0.92200  Biso   1.000  Mo
  Mo4      1.0000 0.74900  0.74900  0.42200  Biso   1.000  Mo
  Mo5      1.0000 0.33100  0.83100  0.25000  Biso   1.000  Mo
  Mo6      1.0000 0.16900  0.66900  0.75000  Biso   1.000  Mo
  Mo7      1.0000 0.66900  0.16900  0.75000  Biso   1.000  Mo
  Mo8      1.0000 0.83100  0.33100  0.25000  Biso   1.000  Mo
  Na1      1.0000 0.24600  0.75400  0.00000  Biso   1.000  Na
  Na2      1.0000 0.25400  0.74600  0.50000  Biso   1.000  Na
  Na3      1.0000 0.75400  0.24600  0.00000  Biso   1.000  Na
  Na4      1.0000 0.74600  0.25400  0.50000  Biso   1.000  Na
  Na5      1.0000 0.32000  0.32000  0.33300  Biso   1.000  Na
  Na6      1.0000 0.18000  0.18000  0.83300  Biso   1.000  Na
  Na7      1.0000 0.68000  0.68000  0.66700  Biso   1.000  Na
  Na8      1.0000 0.82000  0.82000  0.16700  Biso   1.000  Na
  O1       1.0000 0.38000  0.38000  0.01300  Biso   1.000  O 
  O2       1.0000 0.12000  0.12000  0.51300  Biso   1.000  O 
  O3       1.0000 0.62000  0.62000  0.98700  Biso   1.000  O 
  O4       1.0000 0.88000  0.88000  0.48700  Biso   1.000  O 
  O5       1.0000 0.12000  0.12000  0.28800  Biso   1.000  O 
  O6       1.0000 0.38000  0.38000  0.78800  Biso   1.000  O 
  O7       1.0000 0.88000  0.88000  0.71200  Biso   1.000  O 
  O8       1.0000 0.62000  0.62000  0.21200  Biso   1.000  O 
  O9       1.0000 0.36600  0.36600  0.49500  Biso   1.000  O 
  O10      1.0000 0.13400  0.13400  0.99500  Biso   1.000  O 
  O11      1.0000 0.63400  0.63400  0.50500  Biso   1.000  O 
  O12      1.0000 0.86600  0.86600  0.00499  Biso   1.000  O 
  O13      1.0000 0.68000  0.29000  0.34200  Biso   1.000  O 
  O14      1.0000 0.82000  0.21000  0.84200  Biso   1.000  O 
  O15      1.0000 0.71000  0.32000  0.65800  Biso   1.000  O 
  O16      1.0000 0.79000  0.18000  0.15800  Biso   1.000  O 
  O17      1.0000 0.32000  0.71000  0.65800  Biso   1.000  O 
  O18      1.0000 0.18000  0.79000  0.15800  Biso   1.000  O 
  O19      1.0000 0.29000  0.68000  0.34200  Biso   1.000  O 
  O20      1.0000 0.21000  0.82000  0.84200  Biso   1.000  O 
  O21      1.0000 0.44000  0.03390  0.15400  Biso   1.000  O 
  O22      1.0000 0.05970  0.46600  0.65400  Biso   1.000  O 
  O23      1.0000 0.96600  0.56000  0.84600  Biso   1.000  O 
  O24      1.0000 0.53400  0.94000  0.34600  Biso   1.000  O 
  O25      1.0000 0.56000  0.96600  0.84600  Biso   1.000  O 
  O26      1.0000 0.94000  0.53400  0.34600  Biso   1.000  O 
  O27      1.0000 0.03390  0.44000  0.15400  Biso   1.000  O 
  O28      1.0000 0.46600  0.05970  0.65400  Biso   1.000  O 
