data_image0
_cell_length_a       4.12574
_cell_length_b       6.76301
_cell_length_c       9.18758
_cell_angle_alpha    90
_cell_angle_beta     90
_cell_angle_gamma    107.76

_symmetry_space_group_name_H-M    "P 1"
_symmetry_int_tables_number       1

loop_
  _symmetry_equiv_pos_as_xyz
  'x, y, z'

loop_
  _atom_site_label
  _atom_site_occupancy
  _atom_site_fract_x
  _atom_site_fract_y
  _atom_site_fract_z
  _atom_site_thermal_displace_type
  _atom_site_B_iso_or_equiv
  _atom_site_type_symbol
  Br1      1.0000 0.64600  0.29100  0.06540  Biso   1.000  Br
  Br2      1.0000 0.91700  0.83300  0.25000  Biso   1.000  Br
  Br3      1.0000 0.64600  0.29100  0.43500  Biso   1.000  Br
  Br4      1.0000 0.35400  0.70900  0.56500  Biso   1.000  Br
  Br5      1.0000 0.08340  0.16700  0.75000  Biso   1.000  Br
  Br6      1.0000 0.35400  0.70900  0.93500  Biso   1.000  Br
  Nd1      1.0000 0.25700  0.51300  0.25000  Biso   1.000  Nd
  Nd2      1.0000 0.74300  0.48700  0.75000  Biso   1.000  Nd
