data_image0
_cell_length_a       5.90046
_cell_length_b       7.96471
_cell_length_c       4.13082
_cell_angle_alpha    90
_cell_angle_beta     90
_cell_angle_gamma    90

_symmetry_space_group_name_H-M    "P 1"
_symmetry_int_tables_number       1

loop_
  _symmetry_equiv_pos_as_xyz
  'x, y, z'

loop_
  _atom_site_label
  _atom_site_occupancy
  _atom_site_fract_x
  _atom_site_fract_y
  _atom_site_fract_z
  _atom_site_thermal_displace_type
  _atom_site_B_iso_or_equiv
  _atom_site_type_symbol
  Si1      1.0000 0.62700  0.03820  0.25000  Biso   1.000  Si
  Si2      1.0000 0.87300  0.53800  0.25000  Biso   1.000  Si
  Si3      1.0000 0.12700  0.46200  0.75000  Biso   1.000  Si
  Si4      1.0000 0.37300  0.96200  0.75000  Biso   1.000  Si
  Th1      1.0000 0.12300  0.18000  0.25000  Biso   1.000  Th
  Th2      1.0000 0.37700  0.68000  0.25000  Biso   1.000  Th
  Th3      1.0000 0.62300  0.32000  0.75000  Biso   1.000  Th
  Th4      1.0000 0.87700  0.82000  0.75000  Biso   1.000  Th
