data_image0
_cell_length_a       6.57909
_cell_length_b       6.57909
_cell_length_c       6.57909
_cell_angle_alpha    89.9402
_cell_angle_beta     89.9402
_cell_angle_gamma    89.9402

_symmetry_space_group_name_H-M    "P 1"
_symmetry_int_tables_number       1

loop_
  _symmetry_equiv_pos_as_xyz
  'x, y, z'

loop_
  _atom_site_label
  _atom_site_occupancy
  _atom_site_fract_x
  _atom_site_fract_y
  _atom_site_fract_z
  _atom_site_thermal_displace_type
  _atom_site_B_iso_or_equiv
  _atom_site_type_symbol
  Al1      1.0000 0.12100  0.12100  0.12100  Biso   1.000  Al
  Al2      1.0000 0.37900  0.37900  0.37900  Biso   1.000  Al
  Al3      1.0000 0.62100  0.62100  0.62100  Biso   1.000  Al
  Al4      1.0000 0.87900  0.87900  0.87900  Biso   1.000  Al
  Ca1      1.0000 0.75000  0.39100  0.10900  Biso   1.000  Ca
  Ca2      1.0000 0.60900  0.89100  0.25000  Biso   1.000  Ca
  Ca3      1.0000 0.10900  0.75000  0.39100  Biso   1.000  Ca
  Ca4      1.0000 0.89100  0.25000  0.60900  Biso   1.000  Ca
  Ca5      1.0000 0.39100  0.10900  0.75000  Biso   1.000  Ca
  Ca6      1.0000 0.25000  0.60900  0.89100  Biso   1.000  Ca
  O1       1.0000 0.91600  0.69500  0.05520  Biso   1.000  O 
  O2       1.0000 0.30500  0.94500  0.08410  Biso   1.000  O 
  O3       1.0000 0.41600  0.55500  0.19500  Biso   1.000  O 
  O4       1.0000 0.94500  0.08410  0.30500  Biso   1.000  O 
  O5       1.0000 0.55500  0.19500  0.41600  Biso   1.000  O 
  O6       1.0000 0.80500  0.58400  0.44500  Biso   1.000  O 
  O7       1.0000 0.19500  0.41600  0.55500  Biso   1.000  O 
  O8       1.0000 0.44500  0.80500  0.58400  Biso   1.000  O 
  O9       1.0000 0.05520  0.91600  0.69500  Biso   1.000  O 
  O10      1.0000 0.58400  0.44500  0.80500  Biso   1.000  O 
  O11      1.0000 0.69500  0.05520  0.91600  Biso   1.000  O 
  O12      1.0000 0.08410  0.30500  0.94500  Biso   1.000  O 
