data_image0
_cell_length_a       5.10583
_cell_length_b       8.36762
_cell_length_c       5.91177
_cell_angle_alpha    90
_cell_angle_beta     90
_cell_angle_gamma    90

_symmetry_space_group_name_H-M    "P 1"
_symmetry_int_tables_number       1

loop_
  _symmetry_equiv_pos_as_xyz
  'x, y, z'

loop_
  _atom_site_label
  _atom_site_occupancy
  _atom_site_fract_x
  _atom_site_fract_y
  _atom_site_fract_z
  _atom_site_thermal_displace_type
  _atom_site_B_iso_or_equiv
  _atom_site_type_symbol
  C1       1.0000 0.75000  0.24100  0.08640  Biso   1.000  C 
  C2       1.0000 0.25000  0.74100  0.41400  Biso   1.000  C 
  C3       1.0000 0.75000  0.25900  0.58600  Biso   1.000  C 
  C4       1.0000 0.25000  0.75900  0.91400  Biso   1.000  C 
  O1       1.0000 0.53000  0.31900  0.08680  Biso   1.000  O 
  O2       1.0000 0.97000  0.31900  0.08680  Biso   1.000  O 
  O3       1.0000 0.75000  0.08590  0.09790  Biso   1.000  O 
  O4       1.0000 0.25000  0.58600  0.40200  Biso   1.000  O 
  O5       1.0000 0.03020  0.81900  0.41300  Biso   1.000  O 
  O6       1.0000 0.47000  0.81900  0.41300  Biso   1.000  O 
  O7       1.0000 0.53000  0.18100  0.58700  Biso   1.000  O 
  O8       1.0000 0.97000  0.18100  0.58700  Biso   1.000  O 
  O9       1.0000 0.75000  0.41400  0.59800  Biso   1.000  O 
  O10      1.0000 0.25000  0.91400  0.90200  Biso   1.000  O 
  O11      1.0000 0.03020  0.68100  0.91300  Biso   1.000  O 
  O12      1.0000 0.47000  0.68100  0.91300  Biso   1.000  O 
  Sr1      1.0000 0.75000  0.58400  0.24400  Biso   1.000  Sr
  Sr2      1.0000 0.25000  0.08370  0.25600  Biso   1.000  Sr
  Sr3      1.0000 0.75000  0.91600  0.74400  Biso   1.000  Sr
  Sr4      1.0000 0.25000  0.41600  0.75600  Biso   1.000  Sr
