data_image0
_cell_length_a       7.60838
_cell_length_b       9.42067
_cell_length_c       5.35549
_cell_angle_alpha    90
_cell_angle_beta     90
_cell_angle_gamma    90

_symmetry_space_group_name_H-M    "P 1"
_symmetry_int_tables_number       1

loop_
  _symmetry_equiv_pos_as_xyz
  'x, y, z'

loop_
  _atom_site_label
  _atom_site_occupancy
  _atom_site_fract_x
  _atom_site_fract_y
  _atom_site_fract_z
  _atom_site_thermal_displace_type
  _atom_site_B_iso_or_equiv
  _atom_site_type_symbol
  B1       1.0000 0.99900  0.16900  0.25000  Biso   1.000  B 
  B2       1.0000 0.49900  0.33100  0.75000  Biso   1.000  B 
  B3       1.0000 0.50100  0.66900  0.25000  Biso   1.000  B 
  B4       1.0000 0.00144  0.83100  0.75000  Biso   1.000  B 
  B5       1.0000 0.00152  0.42100  0.25000  Biso   1.000  B 
  B6       1.0000 0.50200  0.07940  0.75000  Biso   1.000  B 
  B7       1.0000 0.49800  0.92100  0.25000  Biso   1.000  B 
  B8       1.0000 0.99800  0.57900  0.75000  Biso   1.000  B 
  B9       1.0000 0.27000  0.29300  0.25000  Biso   1.000  B 
  B10      1.0000 0.77000  0.20700  0.75000  Biso   1.000  B 
  B11      1.0000 0.23000  0.79300  0.25000  Biso   1.000  B 
  B12      1.0000 0.73000  0.70700  0.75000  Biso   1.000  B 
  H1       1.0000 0.78500  0.54400  0.25000  Biso   1.000  H 
  H2       1.0000 0.28500  0.95600  0.75000  Biso   1.000  H 
  H3       1.0000 0.71500  0.04390  0.25000  Biso   1.000  H 
  H4       1.0000 0.21500  0.45600  0.75000  Biso   1.000  H 
  H5       1.0000 0.50500  0.20000  0.25000  Biso   1.000  H 
  H6       1.0000 0.00531  0.30000  0.75000  Biso   1.000  H 
  H7       1.0000 0.99500  0.70000  0.25000  Biso   1.000  H 
  H8       1.0000 0.49500  0.80000  0.75000  Biso   1.000  H 
  H9       1.0000 0.96700  0.95200  0.25000  Biso   1.000  H 
  H10      1.0000 0.46700  0.54800  0.75000  Biso   1.000  H 
  H11      1.0000 0.53300  0.45200  0.25000  Biso   1.000  H 
  H12      1.0000 0.03250  0.04840  0.75000  Biso   1.000  H 
  O1       1.0000 0.44900  0.29800  0.25000  Biso   1.000  O 
  O2       1.0000 0.94900  0.20200  0.75000  Biso   1.000  O 
  O3       1.0000 0.05050  0.79800  0.25000  Biso   1.000  O 
  O4       1.0000 0.55100  0.70200  0.75000  Biso   1.000  O 
  O5       1.0000 0.18100  0.41800  0.25000  Biso   1.000  O 
  O6       1.0000 0.68100  0.08180  0.75000  Biso   1.000  O 
  O7       1.0000 0.31900  0.91800  0.25000  Biso   1.000  O 
  O8       1.0000 0.81900  0.58200  0.75000  Biso   1.000  O 
  O9       1.0000 0.17900  0.16800  0.25000  Biso   1.000  O 
  O10      1.0000 0.67900  0.33200  0.75000  Biso   1.000  O 
  O11      1.0000 0.32100  0.66800  0.25000  Biso   1.000  O 
  O12      1.0000 0.82100  0.83200  0.75000  Biso   1.000  O 
  O13      1.0000 0.92100  0.54900  0.25000  Biso   1.000  O 
  O14      1.0000 0.42100  0.95100  0.75000  Biso   1.000  O 
  O15      1.0000 0.57900  0.04890  0.25000  Biso   1.000  O 
  O16      1.0000 0.07950  0.45100  0.75000  Biso   1.000  O 
  O17      1.0000 0.90500  0.29600  0.25000  Biso   1.000  O 
  O18      1.0000 0.40500  0.20400  0.75000  Biso   1.000  O 
  O19      1.0000 0.59500  0.79600  0.25000  Biso   1.000  O 
  O20      1.0000 0.09520  0.70400  0.75000  Biso   1.000  O 
  O21      1.0000 0.90500  0.04620  0.25000  Biso   1.000  O 
  O22      1.0000 0.40500  0.45400  0.75000  Biso   1.000  O 
  O23      1.0000 0.59500  0.54600  0.25000  Biso   1.000  O 
  O24      1.0000 0.09470  0.95400  0.75000  Biso   1.000  O 
