data_image0
_cell_length_a       7.69373
_cell_length_b       7.69373
_cell_length_c       7.69373
_cell_angle_alpha    107.991
_cell_angle_beta     107.991
_cell_angle_gamma    107.991

_symmetry_space_group_name_H-M    "P 1"
_symmetry_int_tables_number       1

loop_
  _symmetry_equiv_pos_as_xyz
  'x, y, z'

loop_
  _atom_site_label
  _atom_site_occupancy
  _atom_site_fract_x
  _atom_site_fract_y
  _atom_site_fract_z
  _atom_site_thermal_displace_type
  _atom_site_B_iso_or_equiv
  _atom_site_type_symbol
  Be1      1.0000 0.87300  0.27800  0.10200  Biso   1.000  Be
  Be2      1.0000 0.72200  0.89800  0.12700  Biso   1.000  Be
  Be3      1.0000 0.61000  0.43100  0.20600  Biso   1.000  Be
  Be4      1.0000 0.10200  0.87300  0.27800  Biso   1.000  Be
  Be5      1.0000 0.56900  0.79400  0.39000  Biso   1.000  Be
  Be6      1.0000 0.20600  0.61000  0.43100  Biso   1.000  Be
  Be7      1.0000 0.79400  0.39000  0.56900  Biso   1.000  Be
  Be8      1.0000 0.43100  0.20600  0.61000  Biso   1.000  Be
  Be9      1.0000 0.89800  0.12700  0.72200  Biso   1.000  Be
  Be10     1.0000 0.39000  0.56900  0.79400  Biso   1.000  Be
  Be11     1.0000 0.27800  0.10200  0.87300  Biso   1.000  Be
  Be12     1.0000 0.12700  0.72200  0.89800  Biso   1.000  Be
  O1       1.0000 0.70600  0.03770  0.00425  Biso   1.000  O 
  O2       1.0000 0.00425  0.70600  0.03770  Biso   1.000  O 
  O3       1.0000 0.37200  0.33700  0.04030  Biso   1.000  O 
  O4       1.0000 0.74900  0.41600  0.08450  Biso   1.000  O 
  O5       1.0000 0.58400  0.91600  0.25100  Biso   1.000  O 
  O6       1.0000 0.96200  0.99600  0.29400  Biso   1.000  O 
  O7       1.0000 0.32900  0.62500  0.29500  Biso   1.000  O 
  O8       1.0000 0.62500  0.29500  0.32900  Biso   1.000  O 
  O9       1.0000 0.04030  0.37200  0.33700  Biso   1.000  O 
  O10      1.0000 0.33700  0.04030  0.37200  Biso   1.000  O 
  O11      1.0000 0.70500  0.67100  0.37500  Biso   1.000  O 
  O12      1.0000 0.08450  0.74900  0.41600  Biso   1.000  O 
  O13      1.0000 0.91600  0.25100  0.58400  Biso   1.000  O 
  O14      1.0000 0.29500  0.32900  0.62500  Biso   1.000  O 
  O15      1.0000 0.66300  0.96000  0.62800  Biso   1.000  O 
  O16      1.0000 0.96000  0.62800  0.66300  Biso   1.000  O 
  O17      1.0000 0.37500  0.70500  0.67100  Biso   1.000  O 
  O18      1.0000 0.67100  0.37500  0.70500  Biso   1.000  O 
  O19      1.0000 0.03770  0.00425  0.70600  Biso   1.000  O 
  O20      1.0000 0.41600  0.08450  0.74900  Biso   1.000  O 
  O21      1.0000 0.25100  0.58400  0.91600  Biso   1.000  O 
  O22      1.0000 0.62800  0.66300  0.96000  Biso   1.000  O 
  O23      1.0000 0.99600  0.29400  0.96200  Biso   1.000  O 
  O24      1.0000 0.29400  0.96200  0.99600  Biso   1.000  O 
  Si1      1.0000 0.23400  0.46200  0.05460  Biso   1.000  Si
  Si2      1.0000 0.46200  0.05460  0.23400  Biso   1.000  Si
  Si3      1.0000 0.05460  0.23400  0.46200  Biso   1.000  Si
  Si4      1.0000 0.94500  0.76600  0.53800  Biso   1.000  Si
  Si5      1.0000 0.53800  0.94500  0.76600  Biso   1.000  Si
  Si6      1.0000 0.76600  0.53800  0.94500  Biso   1.000  Si
