data_image0
_cell_length_a       4.39633
_cell_length_b       4.39633
_cell_length_c       4.76793
_cell_angle_alpha    117.454
_cell_angle_beta     117.454
_cell_angle_gamma    90

_symmetry_space_group_name_H-M    "P 1"
_symmetry_int_tables_number       1

loop_
  _symmetry_equiv_pos_as_xyz
  'x, y, z'

loop_
  _atom_site_label
  _atom_site_occupancy
  _atom_site_fract_x
  _atom_site_fract_y
  _atom_site_fract_z
  _atom_site_thermal_displace_type
  _atom_site_B_iso_or_equiv
  _atom_site_type_symbol
  Ba1      1.0000 0.00000  0.00000  0.00000  Biso   1.000  Ba
  C1       1.0000 0.58800  0.58800  0.17500  Biso   1.000  C 
  C2       1.0000 0.41200  0.41200  0.82500  Biso   1.000  C 
