data_image0
_cell_length_a       5.813
_cell_length_b       5.813
_cell_length_c       6.25188
_cell_angle_alpha    117.704
_cell_angle_beta     117.704
_cell_angle_gamma    90

_symmetry_space_group_name_H-M    "P 1"
_symmetry_int_tables_number       1

loop_
  _symmetry_equiv_pos_as_xyz
  'x, y, z'

loop_
  _atom_site_label
  _atom_site_occupancy
  _atom_site_fract_x
  _atom_site_fract_y
  _atom_site_fract_z
  _atom_site_thermal_displace_type
  _atom_site_B_iso_or_equiv
  _atom_site_type_symbol
  Mn1      1.0000 0.00000  0.00000  0.00000  Biso   1.000  Mn
  Mn2      1.0000 0.62500  0.37500  0.25000  Biso   1.000  Mn
  Mn3      1.0000 0.62500  0.87500  0.25000  Biso   1.000  Mn
  Mn4      1.0000 0.25000  0.75000  0.50000  Biso   1.000  Mn
  Mn5      1.0000 0.12500  0.37500  0.75000  Biso   1.000  Mn
  Mn6      1.0000 0.62500  0.37500  0.75000  Biso   1.000  Mn
  O1       1.0000 0.39000  0.61500  0.23000  Biso   1.000  O 
  O2       1.0000 0.84100  0.61500  0.23000  Biso   1.000  O 
  O3       1.0000 0.40900  0.13500  0.27000  Biso   1.000  O 
  O4       1.0000 0.86000  0.13500  0.27000  Biso   1.000  O 
  O5       1.0000 0.86500  0.14000  0.73000  Biso   1.000  O 
  O6       1.0000 0.86500  0.59100  0.73000  Biso   1.000  O 
  O7       1.0000 0.38500  0.15900  0.77000  Biso   1.000  O 
  O8       1.0000 0.38500  0.61000  0.77000  Biso   1.000  O 
