data_image0
_cell_length_a       8.51477
_cell_length_b       6.61259
_cell_length_c       4.71929
_cell_angle_alpha    90
_cell_angle_beta     90
_cell_angle_gamma    90

_symmetry_space_group_name_H-M    "P 1"
_symmetry_int_tables_number       1

loop_
  _symmetry_equiv_pos_as_xyz
  'x, y, z'

loop_
  _atom_site_label
  _atom_site_occupancy
  _atom_site_fract_x
  _atom_site_fract_y
  _atom_site_fract_z
  _atom_site_thermal_displace_type
  _atom_site_B_iso_or_equiv
  _atom_site_type_symbol
  Cl1      1.0000 0.81600  0.25000  0.02770  Biso   1.000  Cl
  Cl2      1.0000 0.31600  0.25000  0.47200  Biso   1.000  Cl
  Cl3      1.0000 0.68400  0.75000  0.52800  Biso   1.000  Cl
  Cl4      1.0000 0.18400  0.75000  0.97200  Biso   1.000  Cl
  Li1      1.0000 0.50000  0.00000  0.00000  Biso   1.000  Li
  Li2      1.0000 0.50000  0.50000  0.00000  Biso   1.000  Li
  Li3      1.0000 0.00000  0.00000  0.50000  Biso   1.000  Li
  Li4      1.0000 0.00000  0.50000  0.50000  Biso   1.000  Li
  O1       1.0000 0.64400  0.25000  0.04620  Biso   1.000  O 
  O2       1.0000 0.87300  0.06880  0.16400  Biso   1.000  O 
  O3       1.0000 0.87300  0.43100  0.16400  Biso   1.000  O 
  O4       1.0000 0.63400  0.75000  0.23200  Biso   1.000  O 
  O5       1.0000 0.13400  0.75000  0.26800  Biso   1.000  O 
  O6       1.0000 0.37300  0.06880  0.33600  Biso   1.000  O 
  O7       1.0000 0.37300  0.43100  0.33600  Biso   1.000  O 
  O8       1.0000 0.14400  0.25000  0.45400  Biso   1.000  O 
  O9       1.0000 0.85600  0.75000  0.54600  Biso   1.000  O 
  O10      1.0000 0.62700  0.56900  0.66400  Biso   1.000  O 
  O11      1.0000 0.62700  0.93100  0.66400  Biso   1.000  O 
  O12      1.0000 0.86600  0.25000  0.73200  Biso   1.000  O 
  O13      1.0000 0.36600  0.25000  0.76800  Biso   1.000  O 
  O14      1.0000 0.12700  0.56900  0.83600  Biso   1.000  O 
  O15      1.0000 0.12700  0.93100  0.83600  Biso   1.000  O 
  O16      1.0000 0.35600  0.75000  0.95400  Biso   1.000  O 
