data_image0
_cell_length_a       6.70483
_cell_length_b       4.14535
_cell_length_c       7.8112
_cell_angle_alpha    90
_cell_angle_beta     90
_cell_angle_gamma    90

_symmetry_space_group_name_H-M    "P 1"
_symmetry_int_tables_number       1

loop_
  _symmetry_equiv_pos_as_xyz
  'x, y, z'

loop_
  _atom_site_label
  _atom_site_occupancy
  _atom_site_fract_x
  _atom_site_fract_y
  _atom_site_fract_z
  _atom_site_thermal_displace_type
  _atom_site_B_iso_or_equiv
  _atom_site_type_symbol
  Ba1      1.0000 0.74000  0.75000  0.11100  Biso   1.000  Ba
  Ba2      1.0000 0.24000  0.75000  0.38900  Biso   1.000  Ba
  Ba3      1.0000 0.76000  0.25000  0.61100  Biso   1.000  Ba
  Ba4      1.0000 0.26000  0.25000  0.88900  Biso   1.000  Ba
  H1       1.0000 0.35000  0.75000  0.07210  Biso   1.000  H 
  H2       1.0000 0.02820  0.25000  0.18600  Biso   1.000  H 
  H3       1.0000 0.52800  0.25000  0.31400  Biso   1.000  H 
  H4       1.0000 0.85000  0.75000  0.42800  Biso   1.000  H 
  H5       1.0000 0.15000  0.25000  0.57200  Biso   1.000  H 
  H6       1.0000 0.47200  0.75000  0.68600  Biso   1.000  H 
  H7       1.0000 0.97200  0.75000  0.81400  Biso   1.000  H 
  H8       1.0000 0.65000  0.25000  0.92800  Biso   1.000  H 
