data_image0
_cell_length_a       3.22536
_cell_length_b       3.74959
_cell_length_c       6.52539
_cell_angle_alpha    106.697
_cell_angle_beta     104.308
_cell_angle_gamma    90

_symmetry_space_group_name_H-M    "P 1"
_symmetry_int_tables_number       1

loop_
  _symmetry_equiv_pos_as_xyz
  'x, y, z'

loop_
  _atom_site_label
  _atom_site_occupancy
  _atom_site_fract_x
  _atom_site_fract_y
  _atom_site_fract_z
  _atom_site_thermal_displace_type
  _atom_site_B_iso_or_equiv
  _atom_site_type_symbol
  Ca1      1.0000 0.64900  0.14900  0.29900  Biso   1.000  Ca
  Ca2      1.0000 0.35100  0.85100  0.70100  Biso   1.000  Ca
  Cu1      1.0000 0.00000  0.50000  0.00000  Biso   1.000  Cu
  O1       1.0000 0.00000  0.00000  0.00000  Biso   1.000  O 
  O2       1.0000 0.16000  0.66000  0.32100  Biso   1.000  O 
  O3       1.0000 0.84000  0.34000  0.67900  Biso   1.000  O 
