data_image0
_cell_length_a       4.78624
_cell_length_b       4.90912
_cell_length_c       6.8571
_cell_angle_alpha    90
_cell_angle_beta     69.5739
_cell_angle_gamma    90

_symmetry_space_group_name_H-M    "P 1"
_symmetry_int_tables_number       1

loop_
  _symmetry_equiv_pos_as_xyz
  'x, y, z'

loop_
  _atom_site_label
  _atom_site_occupancy
  _atom_site_fract_x
  _atom_site_fract_y
  _atom_site_fract_z
  _atom_site_thermal_displace_type
  _atom_site_B_iso_or_equiv
  _atom_site_type_symbol
  I1       1.0000 0.85500  0.25000  0.28900  Biso   1.000  I 
  I2       1.0000 0.14500  0.75000  0.71100  Biso   1.000  I 
  In1      1.0000 0.39800  0.75000  0.20400  Biso   1.000  In
  In2      1.0000 0.60200  0.25000  0.79600  Biso   1.000  In
