data_image0
_cell_length_a       6.39487
_cell_length_b       6.39487
_cell_length_c       6.39487
_cell_angle_alpha    120
_cell_angle_beta     90
_cell_angle_gamma    120

_symmetry_space_group_name_H-M    "P 1"
_symmetry_int_tables_number       1

loop_
  _symmetry_equiv_pos_as_xyz
  'x, y, z'

loop_
  _atom_site_label
  _atom_site_occupancy
  _atom_site_fract_x
  _atom_site_fract_y
  _atom_site_fract_z
  _atom_site_thermal_displace_type
  _atom_site_B_iso_or_equiv
  _atom_site_type_symbol
  Mo1      1.0000 0.00000  0.00000  0.00000  Biso   1.000  Mo
  Mo2      1.0000 0.75000  0.50000  0.25000  Biso   1.000  Mo
  Na1      1.0000 0.37500  0.75000  0.12500  Biso   1.000  Na
  Na2      1.0000 0.37500  0.25000  0.62500  Biso   1.000  Na
  Na3      1.0000 0.37500  0.75000  0.62500  Biso   1.000  Na
  Na4      1.0000 0.87500  0.25000  0.62500  Biso   1.000  Na
  O1       1.0000 0.11400  0.22900  0.34300  Biso   1.000  O 
  O2       1.0000 0.63600  0.27100  0.36400  Biso   1.000  O 
  O3       1.0000 0.09300  0.72900  0.36400  Biso   1.000  O 
  O4       1.0000 0.63600  0.72900  0.36400  Biso   1.000  O 
  O5       1.0000 0.11400  0.22900  0.88600  Biso   1.000  O 
  O6       1.0000 0.11400  0.77100  0.88600  Biso   1.000  O 
  O7       1.0000 0.65700  0.77100  0.88600  Biso   1.000  O 
  O8       1.0000 0.63600  0.27100  0.90700  Biso   1.000  O 
