data_image0
_cell_length_a       4.08735
_cell_length_b       4.08657
_cell_length_c       7.65128
_cell_angle_alpha    74.5038
_cell_angle_beta     105.492
_cell_angle_gamma    120.006

_symmetry_space_group_name_H-M    "P 1"
_symmetry_int_tables_number       1

loop_
  _symmetry_equiv_pos_as_xyz
  'x, y, z'

loop_
  _atom_site_label
  _atom_site_occupancy
  _atom_site_fract_x
  _atom_site_fract_y
  _atom_site_fract_z
  _atom_site_thermal_displace_type
  _atom_site_B_iso_or_equiv
  _atom_site_type_symbol
  I1       1.0000 0.74200  0.25900  0.22400  Biso   1.000  I 
  I2       1.0000 0.25800  0.74100  0.77600  Biso   1.000  I 
  Zn1      1.0000 0.00000  0.00000  0.00000  Biso   1.000  Zn
