data_image0
_cell_length_a       9.02394
_cell_length_b       17.4757
_cell_length_c       6.77623
_cell_angle_alpha    90
_cell_angle_beta     92.8612
_cell_angle_gamma    90

_symmetry_space_group_name_H-M    "P 1"
_symmetry_int_tables_number       1

loop_
  _symmetry_equiv_pos_as_xyz
  'x, y, z'

loop_
  _atom_site_label
  _atom_site_occupancy
  _atom_site_fract_x
  _atom_site_fract_y
  _atom_site_fract_z
  _atom_site_thermal_displace_type
  _atom_site_B_iso_or_equiv
  _atom_site_type_symbol
  P1       1.0000 0.35100  0.29000  0.47000  Biso   1.000  P 
  P2       1.0000 0.14900  0.79000  0.03020  Biso   1.000  P 
  P3       1.0000 0.64900  0.71000  0.53000  Biso   1.000  P 
  P4       1.0000 0.85100  0.21000  0.97000  Biso   1.000  P 
  P5       1.0000 0.27200  0.46000  0.27400  Biso   1.000  P 
  P6       1.0000 0.22800  0.96000  0.22600  Biso   1.000  P 
  P7       1.0000 0.72800  0.54000  0.72600  Biso   1.000  P 
  P8       1.0000 0.77200  0.04020  0.77400  Biso   1.000  P 
  P9       1.0000 0.28000  0.37800  0.71300  Biso   1.000  P 
  P10      1.0000 0.22000  0.87800  0.78700  Biso   1.000  P 
  P11      1.0000 0.72000  0.62200  0.28700  Biso   1.000  P 
  P12      1.0000 0.78000  0.12200  0.21300  Biso   1.000  P 
  P13      1.0000 0.99600  0.33200  0.41200  Biso   1.000  P 
  P14      1.0000 0.50400  0.83200  0.08800  Biso   1.000  P 
  P15      1.0000 0.00377  0.66800  0.58800  Biso   1.000  P 
  P16      1.0000 0.49600  0.16800  0.91200  Biso   1.000  P 
  S1       1.0000 0.78900  0.30600  0.36200  Biso   1.000  S 
  S2       1.0000 0.71100  0.80600  0.13800  Biso   1.000  S 
  S3       1.0000 0.21100  0.69400  0.63800  Biso   1.000  S 
  S4       1.0000 0.28900  0.19400  0.86200  Biso   1.000  S 
  S5       1.0000 0.30700  0.54300  0.09440  Biso   1.000  S 
  S6       1.0000 0.19300  0.04310  0.40600  Biso   1.000  S 
  S7       1.0000 0.69300  0.45700  0.90600  Biso   1.000  S 
  S8       1.0000 0.80700  0.95700  0.59400  Biso   1.000  S 
  S9       1.0000 0.04670  0.42400  0.22200  Biso   1.000  S 
  S10      1.0000 0.45300  0.92400  0.27800  Biso   1.000  S 
  S11      1.0000 0.95300  0.57600  0.77800  Biso   1.000  S 
  S12      1.0000 0.54700  0.07560  0.72200  Biso   1.000  S 
  S13      1.0000 0.04610  0.36300  0.70800  Biso   1.000  S 
  S14      1.0000 0.45400  0.86300  0.79200  Biso   1.000  S 
  S15      1.0000 0.95400  0.63700  0.29200  Biso   1.000  S 
  S16      1.0000 0.54600  0.13700  0.20800  Biso   1.000  S 
  S17      1.0000 0.14400  0.24200  0.36800  Biso   1.000  S 
  S18      1.0000 0.35600  0.74200  0.13200  Biso   1.000  S 
  S19      1.0000 0.85600  0.75800  0.63200  Biso   1.000  S 
  S20      1.0000 0.64400  0.25800  0.86800  Biso   1.000  S 
  S21      1.0000 0.41200  0.36500  0.23900  Biso   1.000  S 
  S22      1.0000 0.08830  0.86500  0.26100  Biso   1.000  S 
  S23      1.0000 0.58800  0.63500  0.76100  Biso   1.000  S 
  S24      1.0000 0.91200  0.13500  0.73900  Biso   1.000  S 
  S25      1.0000 0.30700  0.48600  0.57500  Biso   1.000  S 
  S26      1.0000 0.19300  0.98600  0.92500  Biso   1.000  S 
  S27      1.0000 0.69300  0.51400  0.42500  Biso   1.000  S 
  S28      1.0000 0.80700  0.01360  0.07520  Biso   1.000  S 
