data_image0
_cell_length_a       3.89318
_cell_length_b       3.89318
_cell_length_c       6.85186
_cell_angle_alpha    106.505
_cell_angle_beta     106.505
_cell_angle_gamma    90

_symmetry_space_group_name_H-M    "P 1"
_symmetry_int_tables_number       1

loop_
  _symmetry_equiv_pos_as_xyz
  'x, y, z'

loop_
  _atom_site_label
  _atom_site_occupancy
  _atom_site_fract_x
  _atom_site_fract_y
  _atom_site_fract_z
  _atom_site_thermal_displace_type
  _atom_site_B_iso_or_equiv
  _atom_site_type_symbol
  O1       1.0000 0.50000  0.00000  0.00000  Biso   1.000  O 
  O2       1.0000 0.00000  0.50000  0.00000  Biso   1.000  O 
  O3       1.0000 0.16000  0.16000  0.31900  Biso   1.000  O 
  O4       1.0000 0.84000  0.84000  0.68100  Biso   1.000  O 
  Sr1      1.0000 0.64500  0.64500  0.29100  Biso   1.000  Sr
  Sr2      1.0000 0.35500  0.35500  0.70900  Biso   1.000  Sr
  Ti1      1.0000 0.00000  0.00000  0.00000  Biso   1.000  Ti
