data_image0
_cell_length_a       5.67067
_cell_length_b       5.67067
_cell_length_c       5.67067
_cell_angle_alpha    120
_cell_angle_beta     90
_cell_angle_gamma    120

_symmetry_space_group_name_H-M    "P 1"
_symmetry_int_tables_number       1

loop_
  _symmetry_equiv_pos_as_xyz
  'x, y, z'

loop_
  _atom_site_label
  _atom_site_occupancy
  _atom_site_fract_x
  _atom_site_fract_y
  _atom_site_fract_z
  _atom_site_thermal_displace_type
  _atom_site_B_iso_or_equiv
  _atom_site_type_symbol
  Ni1      1.0000 0.37500  0.75000  0.12500  Biso   1.000  Ni
  Ni2      1.0000 0.37500  0.25000  0.62500  Biso   1.000  Ni
  Ni3      1.0000 0.87500  0.25000  0.62500  Biso   1.000  Ni
  Ni4      1.0000 0.37500  0.75000  0.62500  Biso   1.000  Ni
  O1       1.0000 0.12000  0.23900  0.35900  Biso   1.000  O 
  O2       1.0000 0.63000  0.26100  0.37000  Biso   1.000  O 
  O3       1.0000 0.10900  0.73900  0.37000  Biso   1.000  O 
  O4       1.0000 0.63000  0.73900  0.37000  Biso   1.000  O 
  O5       1.0000 0.12000  0.23900  0.88000  Biso   1.000  O 
  O6       1.0000 0.12000  0.76100  0.88000  Biso   1.000  O 
  O7       1.0000 0.64100  0.76100  0.88000  Biso   1.000  O 
  O8       1.0000 0.63000  0.26100  0.89100  Biso   1.000  O 
  Si1      1.0000 0.00000  0.00000  0.00000  Biso   1.000  Si
  Si2      1.0000 0.75000  0.50000  0.25000  Biso   1.000  Si
