data_image0
_cell_length_a       12.9481
_cell_length_b       12.9481
_cell_length_c       12.9481
_cell_angle_alpha    114.849
_cell_angle_beta     114.849
_cell_angle_gamma    114.849

_symmetry_space_group_name_H-M    "P 1"
_symmetry_int_tables_number       1

loop_
  _symmetry_equiv_pos_as_xyz
  'x, y, z'

loop_
  _atom_site_label
  _atom_site_occupancy
  _atom_site_fract_x
  _atom_site_fract_y
  _atom_site_fract_z
  _atom_site_thermal_displace_type
  _atom_site_B_iso_or_equiv
  _atom_site_type_symbol
  Br1      1.0000 0.62600  0.20800  0.15400  Biso   1.000  Br
  Br2      1.0000 0.15400  0.62600  0.20800  Biso   1.000  Br
  Br3      1.0000 0.20800  0.15400  0.62600  Biso   1.000  Br
  Br4      1.0000 0.37400  0.79200  0.84600  Biso   1.000  Br
  Br5      1.0000 0.84600  0.37400  0.79200  Biso   1.000  Br
  Br6      1.0000 0.79200  0.84600  0.37400  Biso   1.000  Br
  Br7      1.0000 0.96300  0.47100  0.61500  Biso   1.000  Br
  Br8      1.0000 0.61500  0.96300  0.47100  Biso   1.000  Br
  Br9      1.0000 0.47100  0.61500  0.96300  Biso   1.000  Br
  Br10     1.0000 0.03720  0.52900  0.38500  Biso   1.000  Br
  Br11     1.0000 0.38500  0.03720  0.52900  Biso   1.000  Br
  Br12     1.0000 0.52900  0.38500  0.03720  Biso   1.000  Br
  Br13     1.0000 0.38400  0.53800  0.16100  Biso   1.000  Br
  Br14     1.0000 0.16100  0.38400  0.53800  Biso   1.000  Br
  Br15     1.0000 0.53800  0.16100  0.38400  Biso   1.000  Br
  Br16     1.0000 0.61600  0.46200  0.83900  Biso   1.000  Br
  Br17     1.0000 0.83900  0.61600  0.46200  Biso   1.000  Br
  Br18     1.0000 0.46200  0.83900  0.61600  Biso   1.000  Br
  Br19     1.0000 0.28300  0.95000  0.71100  Biso   1.000  Br
  Br20     1.0000 0.71100  0.28300  0.95000  Biso   1.000  Br
  Br21     1.0000 0.95000  0.71100  0.28300  Biso   1.000  Br
  Br22     1.0000 0.71700  0.05010  0.28900  Biso   1.000  Br
  Br23     1.0000 0.28900  0.71700  0.05010  Biso   1.000  Br
  Br24     1.0000 0.05010  0.28900  0.71700  Biso   1.000  Br
  Br25     1.0000 0.18400  0.89700  0.92200  Biso   1.000  Br
  Br26     1.0000 0.92200  0.18400  0.89700  Biso   1.000  Br
  Br27     1.0000 0.89700  0.92200  0.18400  Biso   1.000  Br
  Br28     1.0000 0.81600  0.10300  0.07770  Biso   1.000  Br
  Br29     1.0000 0.07770  0.81600  0.10300  Biso   1.000  Br
  Br30     1.0000 0.10300  0.07770  0.81600  Biso   1.000  Br
  Br31     1.0000 0.69100  0.76900  0.58600  Biso   1.000  Br
  Br32     1.0000 0.58600  0.69100  0.76900  Biso   1.000  Br
  Br33     1.0000 0.76900  0.58600  0.69100  Biso   1.000  Br
  Br34     1.0000 0.30900  0.23100  0.41400  Biso   1.000  Br
  Br35     1.0000 0.41400  0.30900  0.23100  Biso   1.000  Br
  Br36     1.0000 0.23100  0.41400  0.30900  Biso   1.000  Br
  Pt1      1.0000 0.54600  0.78700  0.21900  Biso   1.000  Pt
  Pt2      1.0000 0.21900  0.54600  0.78700  Biso   1.000  Pt
  Pt3      1.0000 0.78700  0.21900  0.54600  Biso   1.000  Pt
  Pt4      1.0000 0.45400  0.21300  0.78100  Biso   1.000  Pt
  Pt5      1.0000 0.78100  0.45400  0.21300  Biso   1.000  Pt
  Pt6      1.0000 0.21300  0.78100  0.45400  Biso   1.000  Pt
  Pt7      1.0000 0.16900  0.24700  0.06350  Biso   1.000  Pt
  Pt8      1.0000 0.06350  0.16900  0.24700  Biso   1.000  Pt
  Pt9      1.0000 0.24700  0.06350  0.16900  Biso   1.000  Pt
  Pt10     1.0000 0.83100  0.75300  0.93600  Biso   1.000  Pt
  Pt11     1.0000 0.93600  0.83100  0.75300  Biso   1.000  Pt
  Pt12     1.0000 0.75300  0.93600  0.83100  Biso   1.000  Pt
