data_image0
_cell_length_a       10.8971
_cell_length_b       10.8971
_cell_length_c       3.79093
_cell_angle_alpha    90
_cell_angle_beta     90
_cell_angle_gamma    90

_symmetry_space_group_name_H-M    "P 1"
_symmetry_int_tables_number       1

loop_
  _symmetry_equiv_pos_as_xyz
  'x, y, z'

loop_
  _atom_site_label
  _atom_site_occupancy
  _atom_site_fract_x
  _atom_site_fract_y
  _atom_site_fract_z
  _atom_site_thermal_displace_type
  _atom_site_B_iso_or_equiv
  _atom_site_type_symbol
  Cl1      1.0000 0.31000  0.10100  0.00000  Biso   1.000  Cl
  Cl2      1.0000 0.87500  0.12500  0.00000  Biso   1.000  Cl
  Cl3      1.0000 0.10100  0.31000  0.00000  Biso   1.000  Cl
  Cl4      1.0000 0.89900  0.69000  0.00000  Biso   1.000  Cl
  Cl5      1.0000 0.12500  0.87500  0.00000  Biso   1.000  Cl
  Cl6      1.0000 0.69000  0.89900  0.00000  Biso   1.000  Cl
  Cl7      1.0000 0.60100  0.19000  0.50000  Biso   1.000  Cl
  Cl8      1.0000 0.37500  0.37500  0.50000  Biso   1.000  Cl
  Cl9      1.0000 0.81000  0.39900  0.50000  Biso   1.000  Cl
  Cl10     1.0000 0.19000  0.60100  0.50000  Biso   1.000  Cl
  Cl11     1.0000 0.62500  0.62500  0.50000  Biso   1.000  Cl
  Cl12     1.0000 0.39900  0.81000  0.50000  Biso   1.000  Cl
  O1       1.0000 0.59000  0.41000  0.00000  Biso   1.000  O 
  O2       1.0000 0.41000  0.59000  0.00000  Biso   1.000  O 
  O3       1.0000 0.08970  0.08970  0.50000  Biso   1.000  O 
  O4       1.0000 0.91000  0.91000  0.50000  Biso   1.000  O 
  W1       1.0000 0.09730  0.09730  0.00000  Biso   1.000  W 
  W2       1.0000 0.90300  0.90300  0.00000  Biso   1.000  W 
  W3       1.0000 0.59700  0.40300  0.50000  Biso   1.000  W 
  W4       1.0000 0.40300  0.59700  0.50000  Biso   1.000  W 
