data_image0
_cell_length_a       7.22505
_cell_length_b       8.49874
_cell_length_c       5.73017
_cell_angle_alpha    90
_cell_angle_beta     90
_cell_angle_gamma    90

_symmetry_space_group_name_H-M    "P 1"
_symmetry_int_tables_number       1

loop_
  _symmetry_equiv_pos_as_xyz
  'x, y, z'

loop_
  _atom_site_label
  _atom_site_occupancy
  _atom_site_fract_x
  _atom_site_fract_y
  _atom_site_fract_z
  _atom_site_thermal_displace_type
  _atom_site_B_iso_or_equiv
  _atom_site_type_symbol
  Mn1      1.0000 0.50000  0.00000  0.25300  Biso   1.000  Mn
  Mn2      1.0000 0.00000  0.50000  0.25300  Biso   1.000  Mn
  Mn3      1.0000 0.91400  0.15200  0.50000  Biso   1.000  Mn
  Mn4      1.0000 0.41400  0.34800  0.50000  Biso   1.000  Mn
  Mn5      1.0000 0.58600  0.65200  0.50000  Biso   1.000  Mn
  Mn6      1.0000 0.08640  0.84800  0.50000  Biso   1.000  Mn
  Mn7      1.0000 0.50000  0.00000  0.74700  Biso   1.000  Mn
  Mn8      1.0000 0.00000  0.50000  0.74700  Biso   1.000  Mn
  O1       1.0000 0.66600  0.05710  0.00000  Biso   1.000  O 
  O2       1.0000 0.16600  0.44300  0.00000  Biso   1.000  O 
  O3       1.0000 0.83400  0.55700  0.00000  Biso   1.000  O 
  O4       1.0000 0.33400  0.94300  0.00000  Biso   1.000  O 
  O5       1.0000 0.39300  0.20700  0.24100  Biso   1.000  O 
  O6       1.0000 0.89300  0.29300  0.24100  Biso   1.000  O 
  O7       1.0000 0.10700  0.70700  0.24100  Biso   1.000  O 
  O8       1.0000 0.60700  0.79300  0.24100  Biso   1.000  O 
  O9       1.0000 0.00000  0.00000  0.27100  Biso   1.000  O 
  O10      1.0000 0.50000  0.50000  0.27100  Biso   1.000  O 
  O11      1.0000 0.65300  0.06960  0.50000  Biso   1.000  O 
  O12      1.0000 0.15300  0.43000  0.50000  Biso   1.000  O 
  O13      1.0000 0.84700  0.57000  0.50000  Biso   1.000  O 
  O14      1.0000 0.34700  0.93000  0.50000  Biso   1.000  O 
  O15      1.0000 0.00000  0.00000  0.72900  Biso   1.000  O 
  O16      1.0000 0.50000  0.50000  0.72900  Biso   1.000  O 
  O17      1.0000 0.39300  0.20700  0.75900  Biso   1.000  O 
  O18      1.0000 0.89300  0.29300  0.75900  Biso   1.000  O 
  O19      1.0000 0.10700  0.70700  0.75900  Biso   1.000  O 
  O20      1.0000 0.60700  0.79300  0.75900  Biso   1.000  O 
  Y1       1.0000 0.13500  0.17100  0.00000  Biso   1.000  Y 
  Y2       1.0000 0.63500  0.32900  0.00000  Biso   1.000  Y 
  Y3       1.0000 0.36500  0.67100  0.00000  Biso   1.000  Y 
  Y4       1.0000 0.86500  0.82900  0.00000  Biso   1.000  Y 
