data_image0
_cell_length_a       3.68389
_cell_length_b       3.68389
_cell_length_c       5.76062
_cell_angle_alpha    107.741
_cell_angle_beta     72.2587
_cell_angle_gamma    103.132

_symmetry_space_group_name_H-M    "P 1"
_symmetry_int_tables_number       1

loop_
  _symmetry_equiv_pos_as_xyz
  'x, y, z'

loop_
  _atom_site_label
  _atom_site_occupancy
  _atom_site_fract_x
  _atom_site_fract_y
  _atom_site_fract_z
  _atom_site_thermal_displace_type
  _atom_site_B_iso_or_equiv
  _atom_site_type_symbol
  O1       1.0000 0.02160  0.69600  0.06660  Biso   1.000  O 
  O2       1.0000 0.26600  0.40400  0.33700  Biso   1.000  O 
  O3       1.0000 0.78300  0.78300  0.50000  Biso   1.000  O 
  O4       1.0000 0.40400  0.26600  0.66300  Biso   1.000  O 
  O5       1.0000 0.69600  0.02160  0.93300  Biso   1.000  O 
  Ta1      1.0000 0.76300  0.17500  0.27800  Biso   1.000  Ta
  Ta2      1.0000 0.17500  0.76300  0.72200  Biso   1.000  Ta
