data_image0
_cell_length_a       4.44583
_cell_length_b       7.72308
_cell_length_c       10.1445
_cell_angle_alpha    90
_cell_angle_beta     90
_cell_angle_gamma    106.728

_symmetry_space_group_name_H-M    "P 1"
_symmetry_int_tables_number       1

loop_
  _symmetry_equiv_pos_as_xyz
  'x, y, z'

loop_
  _atom_site_label
  _atom_site_occupancy
  _atom_site_fract_x
  _atom_site_fract_y
  _atom_site_fract_z
  _atom_site_thermal_displace_type
  _atom_site_B_iso_or_equiv
  _atom_site_type_symbol
  I1       1.0000 0.64900  0.29900  0.06610  Biso   1.000  I 
  I2       1.0000 0.91300  0.82600  0.25000  Biso   1.000  I 
  I3       1.0000 0.64900  0.29900  0.43400  Biso   1.000  I 
  I4       1.0000 0.35100  0.70100  0.56600  Biso   1.000  I 
  I5       1.0000 0.08710  0.17400  0.75000  Biso   1.000  I 
  I6       1.0000 0.35100  0.70100  0.93400  Biso   1.000  I 
  La1      1.0000 0.25800  0.51600  0.25000  Biso   1.000  La
  La2      1.0000 0.74200  0.48400  0.75000  Biso   1.000  La
