data_image0
_cell_length_a       6.80745
_cell_length_b       6.80745
_cell_length_c       12.5115
_cell_angle_alpha    90
_cell_angle_beta     90
_cell_angle_gamma    120.003

_symmetry_space_group_name_H-M    "P 1"
_symmetry_int_tables_number       1

loop_
  _symmetry_equiv_pos_as_xyz
  'x, y, z'

loop_
  _atom_site_label
  _atom_site_occupancy
  _atom_site_fract_x
  _atom_site_fract_y
  _atom_site_fract_z
  _atom_site_thermal_displace_type
  _atom_site_B_iso_or_equiv
  _atom_site_type_symbol
  As1      1.0000 0.00000  0.00000  0.22900  Biso   1.000  As
  As2      1.0000 0.66700  0.33300  0.27100  Biso   1.000  As
  As3      1.0000 0.33300  0.66700  0.27100  Biso   1.000  As
  As4      1.0000 0.66900  0.66900  0.49800  Biso   1.000  As
  As5      1.0000 0.33100  0.00000  0.49800  Biso   1.000  As
  As6      1.0000 0.00000  0.33100  0.49800  Biso   1.000  As
  As7      1.0000 0.00000  0.00000  0.72900  Biso   1.000  As
  As8      1.0000 0.66700  0.33300  0.77100  Biso   1.000  As
  As9      1.0000 0.33300  0.66700  0.77100  Biso   1.000  As
  As10     1.0000 0.33100  0.33100  0.99800  Biso   1.000  As
  As11     1.0000 0.66900  0.00000  0.99800  Biso   1.000  As
  As12     1.0000 0.00000  0.66900  0.99800  Biso   1.000  As
  Ni1      1.0000 0.66700  0.33300  0.06960  Biso   1.000  Ni
  Ni2      1.0000 0.33300  0.66700  0.06960  Biso   1.000  Ni
  Ni3      1.0000 0.25200  0.00000  0.09620  Biso   1.000  Ni
  Ni4      1.0000 0.00000  0.25200  0.09620  Biso   1.000  Ni
  Ni5      1.0000 0.74800  0.74800  0.09620  Biso   1.000  Ni
  Ni6      1.0000 0.62500  0.00000  0.19500  Biso   1.000  Ni
  Ni7      1.0000 0.00000  0.62500  0.19500  Biso   1.000  Ni
  Ni8      1.0000 0.37500  0.37500  0.19500  Biso   1.000  Ni
  Ni9      1.0000 0.31000  0.00000  0.30300  Biso   1.000  Ni
  Ni10     1.0000 0.00000  0.31000  0.30300  Biso   1.000  Ni
  Ni11     1.0000 0.69000  0.69000  0.30300  Biso   1.000  Ni
  Ni12     1.0000 0.62500  0.00000  0.40700  Biso   1.000  Ni
  Ni13     1.0000 0.37500  0.37500  0.40700  Biso   1.000  Ni
  Ni14     1.0000 0.00000  0.62500  0.40700  Biso   1.000  Ni
  Ni15     1.0000 0.00000  0.00000  0.42500  Biso   1.000  Ni
  Ni16     1.0000 0.66700  0.33300  0.57000  Biso   1.000  Ni
  Ni17     1.0000 0.33300  0.66700  0.57000  Biso   1.000  Ni
  Ni18     1.0000 0.74800  0.00000  0.59600  Biso   1.000  Ni
  Ni19     1.0000 0.00000  0.74800  0.59600  Biso   1.000  Ni
  Ni20     1.0000 0.25200  0.25200  0.59600  Biso   1.000  Ni
  Ni21     1.0000 0.37500  0.00000  0.69500  Biso   1.000  Ni
  Ni22     1.0000 0.00000  0.37500  0.69500  Biso   1.000  Ni
  Ni23     1.0000 0.62500  0.62500  0.69500  Biso   1.000  Ni
  Ni24     1.0000 0.69000  0.00000  0.80300  Biso   1.000  Ni
  Ni25     1.0000 1.00000  0.69000  0.80300  Biso   1.000  Ni
  Ni26     1.0000 0.31000  0.31000  0.80300  Biso   1.000  Ni
  Ni27     1.0000 0.37500  0.00000  0.90700  Biso   1.000  Ni
  Ni28     1.0000 0.00000  0.37500  0.90700  Biso   1.000  Ni
  Ni29     1.0000 0.62500  0.62500  0.90700  Biso   1.000  Ni
  Ni30     1.0000 0.00000  0.00000  0.92500  Biso   1.000  Ni
