data_image0
_cell_length_a       4.27021
_cell_length_b       7.34134
_cell_length_c       4.81078
_cell_angle_alpha    90
_cell_angle_beta     124.107
_cell_angle_gamma    90

_symmetry_space_group_name_H-M    "P 1"
_symmetry_int_tables_number       1

loop_
  _symmetry_equiv_pos_as_xyz
  'x, y, z'

loop_
  _atom_site_label
  _atom_site_occupancy
  _atom_site_fract_x
  _atom_site_fract_y
  _atom_site_fract_z
  _atom_site_thermal_displace_type
  _atom_site_B_iso_or_equiv
  _atom_site_type_symbol
  Ag1      1.0000 0.22900  0.75000  0.11300  Biso   1.000  Ag
  Ag2      1.0000 0.00000  0.00000  0.50000  Biso   1.000  Ag
  Ag3      1.0000 0.00000  0.50000  0.50000  Biso   1.000  Ag
  Ag4      1.0000 0.77100  0.25000  0.88700  Biso   1.000  Ag
  S1       1.0000 0.55100  0.25000  0.27800  Biso   1.000  S 
  S2       1.0000 0.44900  0.75000  0.72200  Biso   1.000  S 
