data_image0
_cell_length_a       2.97282
_cell_length_b       3.03198
_cell_length_c       6.93103
_cell_angle_alpha    102.634
_cell_angle_beta     102.384
_cell_angle_gamma    90

_symmetry_space_group_name_H-M    "P 1"
_symmetry_int_tables_number       1

loop_
  _symmetry_equiv_pos_as_xyz
  'x, y, z'

loop_
  _atom_site_label
  _atom_site_occupancy
  _atom_site_fract_x
  _atom_site_fract_y
  _atom_site_fract_z
  _atom_site_thermal_displace_type
  _atom_site_B_iso_or_equiv
  _atom_site_type_symbol
  B1       1.0000 0.06560  0.56600  0.13100  Biso   1.000  B 
  B2       1.0000 0.63600  0.63600  0.27300  Biso   1.000  B 
  B3       1.0000 0.36400  0.36400  0.72700  Biso   1.000  B 
  B4       1.0000 0.93400  0.43400  0.86900  Biso   1.000  B 
  V1       1.0000 0.50000  0.00000  0.00000  Biso   1.000  V 
  V2       1.0000 0.18800  0.18800  0.37600  Biso   1.000  V 
  V3       1.0000 0.81200  0.81200  0.62400  Biso   1.000  V 
