data_image0
_cell_length_a       3.6805
_cell_length_b       3.68006
_cell_length_c       6.55813
_cell_angle_alpha    90
_cell_angle_beta     90
_cell_angle_gamma    120.004

_symmetry_space_group_name_H-M    "P 1"
_symmetry_int_tables_number       1

loop_
  _symmetry_equiv_pos_as_xyz
  'x, y, z'

loop_
  _atom_site_label
  _atom_site_occupancy
  _atom_site_fract_x
  _atom_site_fract_y
  _atom_site_fract_z
  _atom_site_thermal_displace_type
  _atom_site_B_iso_or_equiv
  _atom_site_type_symbol
  H1       1.0000 0.66700  0.33300  0.09490  Biso   1.000  H 
  H2       1.0000 0.00001  0.00003  0.25000  Biso   1.000  H 
  H3       1.0000 0.66700  0.33300  0.40500  Biso   1.000  H 
  H4       1.0000 0.33300  0.66700  0.59500  Biso   1.000  H 
  H5       1.0000 0.00000  0.00000  0.75000  Biso   1.000  H 
  H6       1.0000 0.33300  0.66700  0.90500  Biso   1.000  H 
  Pu1      1.0000 0.33300  0.66700  0.25000  Biso   1.000  Pu
  Pu2      1.0000 0.66700  0.33300  0.75000  Biso   1.000  Pu
