data_image0
_cell_length_a       5.21893
_cell_length_b       5.21893
_cell_length_c       6.89955
_cell_angle_alpha    90
_cell_angle_beta     90
_cell_angle_gamma    64.0271

_symmetry_space_group_name_H-M    "P 1"
_symmetry_int_tables_number       1

loop_
  _symmetry_equiv_pos_as_xyz
  'x, y, z'

loop_
  _atom_site_label
  _atom_site_occupancy
  _atom_site_fract_x
  _atom_site_fract_y
  _atom_site_fract_z
  _atom_site_thermal_displace_type
  _atom_site_B_iso_or_equiv
  _atom_site_type_symbol
  Na1      1.0000 0.00000  0.50000  0.00000  Biso   1.000  Na
  Na2      1.0000 0.31200  0.81200  0.25000  Biso   1.000  Na
  Na3      1.0000 0.00000  0.50000  0.50000  Biso   1.000  Na
  Na4      1.0000 0.68800  0.18800  0.75000  Biso   1.000  Na
  O1       1.0000 0.74600  0.24600  0.07510  Biso   1.000  O 
  O2       1.0000 0.33200  0.27000  0.25000  Biso   1.000  O 
  O3       1.0000 0.77000  0.83200  0.25000  Biso   1.000  O 
  O4       1.0000 0.74600  0.24600  0.42500  Biso   1.000  O 
  O5       1.0000 0.25400  0.75400  0.57500  Biso   1.000  O 
  O6       1.0000 0.23000  0.16800  0.75000  Biso   1.000  O 
  O7       1.0000 0.66800  0.73000  0.75000  Biso   1.000  O 
  O8       1.0000 0.25400  0.75400  0.92500  Biso   1.000  O 
  S1       1.0000 0.65000  0.15000  0.25000  Biso   1.000  S 
  S2       1.0000 0.35000  0.85000  0.75000  Biso   1.000  S 
