data_image0
_cell_length_a       9.50686
_cell_length_b       9.50686
_cell_length_c       11.8668
_cell_angle_alpha    90
_cell_angle_beta     90
_cell_angle_gamma    77.0901

_symmetry_space_group_name_H-M    "P 1"
_symmetry_int_tables_number       1

loop_
  _symmetry_equiv_pos_as_xyz
  'x, y, z'

loop_
  _atom_site_label
  _atom_site_occupancy
  _atom_site_fract_x
  _atom_site_fract_y
  _atom_site_fract_z
  _atom_site_thermal_displace_type
  _atom_site_B_iso_or_equiv
  _atom_site_type_symbol
  Br1      1.0000 0.29900  0.29900  0.00000  Biso   1.000  Br
  Br2      1.0000 0.70100  0.70100  0.00000  Biso   1.000  Br
  Br3      1.0000 0.08340  0.66800  0.07710  Biso   1.000  Br
  Br4      1.0000 0.33200  0.91700  0.07710  Biso   1.000  Br
  Br5      1.0000 0.64600  0.35400  0.14600  Biso   1.000  Br
  Br6      1.0000 0.04710  0.20100  0.20700  Biso   1.000  Br
  Br7      1.0000 0.79900  0.95300  0.20700  Biso   1.000  Br
  Br8      1.0000 0.29900  0.45300  0.29300  Biso   1.000  Br
  Br9      1.0000 0.54700  0.70100  0.29300  Biso   1.000  Br
  Br10     1.0000 0.14600  0.85400  0.35400  Biso   1.000  Br
  Br11     1.0000 0.58300  0.16800  0.42300  Biso   1.000  Br
  Br12     1.0000 0.83200  0.41700  0.42300  Biso   1.000  Br
  Br13     1.0000 0.20100  0.20100  0.50000  Biso   1.000  Br
  Br14     1.0000 0.79900  0.79900  0.50000  Biso   1.000  Br
  Br15     1.0000 0.16800  0.58300  0.57700  Biso   1.000  Br
  Br16     1.0000 0.41700  0.83200  0.57700  Biso   1.000  Br
  Br17     1.0000 0.85400  0.14600  0.64600  Biso   1.000  Br
  Br18     1.0000 0.45300  0.29900  0.70700  Biso   1.000  Br
  Br19     1.0000 0.70100  0.54700  0.70700  Biso   1.000  Br
  Br20     1.0000 0.20100  0.04710  0.79300  Biso   1.000  Br
  Br21     1.0000 0.95300  0.79900  0.79300  Biso   1.000  Br
  Br22     1.0000 0.35400  0.64600  0.85400  Biso   1.000  Br
  Br23     1.0000 0.66800  0.08340  0.92300  Biso   1.000  Br
  Br24     1.0000 0.91700  0.33200  0.92300  Biso   1.000  Br
  Mo1      1.0000 0.12600  0.12600  0.00000  Biso   1.000  Mo
  Mo2      1.0000 0.87400  0.87400  0.00000  Biso   1.000  Mo
  Mo3      1.0000 0.85700  0.14300  0.06580  Biso   1.000  Mo
  Mo4      1.0000 0.06600  0.93400  0.14300  Biso   1.000  Mo
  Mo5      1.0000 0.56600  0.43400  0.35700  Biso   1.000  Mo
  Mo6      1.0000 0.35700  0.64300  0.43400  Biso   1.000  Mo
  Mo7      1.0000 0.37400  0.37400  0.50000  Biso   1.000  Mo
  Mo8      1.0000 0.62600  0.62600  0.50000  Biso   1.000  Mo
  Mo9      1.0000 0.64300  0.35700  0.56600  Biso   1.000  Mo
  Mo10     1.0000 0.43400  0.56600  0.64300  Biso   1.000  Mo
  Mo11     1.0000 0.93400  0.06600  0.85700  Biso   1.000  Mo
  Mo12     1.0000 0.14300  0.85700  0.93400  Biso   1.000  Mo
