data_image0
_cell_length_a       6.44745
_cell_length_b       5.98329
_cell_length_c       5.98329
_cell_angle_alpha    90
_cell_angle_beta     117.646
_cell_angle_gamma    117.646

_symmetry_space_group_name_H-M    "P 1"
_symmetry_int_tables_number       1

loop_
  _symmetry_equiv_pos_as_xyz
  'x, y, z'

loop_
  _atom_site_label
  _atom_site_occupancy
  _atom_site_fract_x
  _atom_site_fract_y
  _atom_site_fract_z
  _atom_site_thermal_displace_type
  _atom_site_B_iso_or_equiv
  _atom_site_type_symbol
  Ge1      1.0000 0.50000  0.75000  0.25000  Biso   1.000  Ge
  Ge2      1.0000 0.00000  0.50000  0.50000  Biso   1.000  Ge
  Se1      1.0000 0.75000  0.12500  0.13500  Biso   1.000  Se
  Se2      1.0000 0.25000  0.86500  0.37500  Biso   1.000  Se
  Se3      1.0000 0.75000  0.62500  0.61500  Biso   1.000  Se
  Se4      1.0000 0.25000  0.38500  0.87500  Biso   1.000  Se
