data_image0
_cell_length_a       7.75589
_cell_length_b       10.3561
_cell_length_c       8.12246
_cell_angle_alpha    90
_cell_angle_beta     91.6804
_cell_angle_gamma    90

_symmetry_space_group_name_H-M    "P 1"
_symmetry_int_tables_number       1

loop_
  _symmetry_equiv_pos_as_xyz
  'x, y, z'

loop_
  _atom_site_label
  _atom_site_occupancy
  _atom_site_fract_x
  _atom_site_fract_y
  _atom_site_fract_z
  _atom_site_thermal_displace_type
  _atom_site_B_iso_or_equiv
  _atom_site_type_symbol
  Cl1      1.0000 0.64500  0.12800  0.06130  Biso   1.000  Cl
  Cl2      1.0000 0.85500  0.62800  0.43900  Biso   1.000  Cl
  Cl3      1.0000 0.35500  0.87200  0.93900  Biso   1.000  Cl
  Cl4      1.0000 0.14500  0.37200  0.56100  Biso   1.000  Cl
  Cl5      1.0000 0.94800  0.37800  0.15500  Biso   1.000  Cl
  Cl6      1.0000 0.55200  0.87800  0.34500  Biso   1.000  Cl
  Cl7      1.0000 0.05150  0.62200  0.84500  Biso   1.000  Cl
  Cl8      1.0000 0.44800  0.12200  0.65500  Biso   1.000  Cl
  Cl9      1.0000 0.04580  0.11800  0.85800  Biso   1.000  Cl
  Cl10     1.0000 0.45400  0.61800  0.64200  Biso   1.000  Cl
  Cl11     1.0000 0.95400  0.88200  0.14200  Biso   1.000  Cl
  Cl12     1.0000 0.54600  0.38200  0.35800  Biso   1.000  Cl
  Cl13     1.0000 0.84700  0.12800  0.45700  Biso   1.000  Cl
  Cl14     1.0000 0.65300  0.62800  0.04310  Biso   1.000  Cl
  Cl15     1.0000 0.15300  0.87200  0.54300  Biso   1.000  Cl
  Cl16     1.0000 0.34700  0.37200  0.95700  Biso   1.000  Cl
  Cl17     1.0000 0.25100  0.12700  0.25600  Biso   1.000  Cl
  Cl18     1.0000 0.24900  0.62700  0.24400  Biso   1.000  Cl
  Cl19     1.0000 0.74900  0.87300  0.74400  Biso   1.000  Cl
  Cl20     1.0000 0.75100  0.37300  0.75600  Biso   1.000  Cl
  U1       1.0000 0.94400  0.14000  0.17100  Biso   1.000  U 
  U2       1.0000 0.55600  0.64000  0.32900  Biso   1.000  U 
  U3       1.0000 0.05600  0.86000  0.82900  Biso   1.000  U 
  U4       1.0000 0.44400  0.36000  0.67100  Biso   1.000  U 
