data_image0
_cell_length_a       11.1728
_cell_length_b       11.1728
_cell_length_c       11.1728
_cell_angle_alpha    160.023
_cell_angle_beta     160.023
_cell_angle_gamma    28.3993

_symmetry_space_group_name_H-M    "P 1"
_symmetry_int_tables_number       1

loop_
  _symmetry_equiv_pos_as_xyz
  'x, y, z'

loop_
  _atom_site_label
  _atom_site_occupancy
  _atom_site_fract_x
  _atom_site_fract_y
  _atom_site_fract_z
  _atom_site_thermal_displace_type
  _atom_site_B_iso_or_equiv
  _atom_site_type_symbol
  Al1      1.0000 0.10500  0.10500  0.00000  Biso   1.000  Al
  Al2      1.0000 0.89500  0.89500  0.00000  Biso   1.000  Al
  Ba1      1.0000 0.31700  0.31700  0.00000  Biso   1.000  Ba
  Ba2      1.0000 0.50000  0.50000  0.00000  Biso   1.000  Ba
  Ba3      1.0000 0.68300  0.68300  0.00000  Biso   1.000  Ba
  O1       1.0000 0.18900  0.18900  0.00000  Biso   1.000  O 
  O2       1.0000 0.81100  0.81100  0.00000  Biso   1.000  O 
  O3       1.0000 0.58800  0.08810  0.50000  Biso   1.000  O 
  O4       1.0000 0.91200  0.41200  0.50000  Biso   1.000  O 
  O5       1.0000 0.08810  0.58800  0.50000  Biso   1.000  O 
  O6       1.0000 0.41200  0.91200  0.50000  Biso   1.000  O 
