data_image0
_cell_length_a       5.05315
_cell_length_b       5.05315
_cell_length_c       5.05315
_cell_angle_alpha    114.324
_cell_angle_beta     100.149
_cell_angle_gamma    114.324

_symmetry_space_group_name_H-M    "P 1"
_symmetry_int_tables_number       1

loop_
  _symmetry_equiv_pos_as_xyz
  'x, y, z'

loop_
  _atom_site_label
  _atom_site_occupancy
  _atom_site_fract_x
  _atom_site_fract_y
  _atom_site_fract_z
  _atom_site_thermal_displace_type
  _atom_site_B_iso_or_equiv
  _atom_site_type_symbol
  F1       1.0000 0.64700  0.79500  0.14700  Biso   1.000  F 
  F2       1.0000 0.14700  0.50000  0.35300  Biso   1.000  F 
  F3       1.0000 0.85300  0.50000  0.64700  Biso   1.000  F 
  F4       1.0000 0.35300  0.20500  0.85300  Biso   1.000  F 
  H1       1.0000 0.50000  0.50000  0.00000  Biso   1.000  H 
  H2       1.0000 0.00000  0.50000  0.50000  Biso   1.000  H 
  K1       1.0000 0.25000  0.00000  0.25000  Biso   1.000  K 
  K2       1.0000 0.75000  0.00000  0.75000  Biso   1.000  K 
