data_image0
_cell_length_a       4.01146
_cell_length_b       4.58721
_cell_length_c       10.7987
_cell_angle_alpha    90
_cell_angle_beta     90
_cell_angle_gamma    90

_symmetry_space_group_name_H-M    "P 1"
_symmetry_int_tables_number       1

loop_
  _symmetry_equiv_pos_as_xyz
  'x, y, z'

loop_
  _atom_site_label
  _atom_site_occupancy
  _atom_site_fract_x
  _atom_site_fract_y
  _atom_site_fract_z
  _atom_site_thermal_displace_type
  _atom_site_B_iso_or_equiv
  _atom_site_type_symbol
  In1      1.0000 0.00000  0.12600  0.11900  Biso   1.000  In
  In2      1.0000 0.50000  0.62600  0.38100  Biso   1.000  In
  In3      1.0000 0.50000  0.37400  0.61900  Biso   1.000  In
  In4      1.0000 0.00000  0.87400  0.88100  Biso   1.000  In
  S1       1.0000 0.50000  0.47600  0.15300  Biso   1.000  S 
  S2       1.0000 0.00000  0.97600  0.34700  Biso   1.000  S 
  S3       1.0000 0.00000  0.02370  0.65300  Biso   1.000  S 
  S4       1.0000 0.50000  0.52400  0.84700  Biso   1.000  S 
