data_image0
_cell_length_a       5.31716
_cell_length_b       8.45472
_cell_length_c       7.66782
_cell_angle_alpha    90
_cell_angle_beta     96.3739
_cell_angle_gamma    90

_symmetry_space_group_name_H-M    "P 1"
_symmetry_int_tables_number       1

loop_
  _symmetry_equiv_pos_as_xyz
  'x, y, z'

loop_
  _atom_site_label
  _atom_site_occupancy
  _atom_site_fract_x
  _atom_site_fract_y
  _atom_site_fract_z
  _atom_site_thermal_displace_type
  _atom_site_B_iso_or_equiv
  _atom_site_type_symbol
  As1      1.0000 0.05140  0.30600  0.18800  Biso   1.000  As
  As2      1.0000 0.44900  0.80600  0.31200  Biso   1.000  As
  As3      1.0000 0.55100  0.19400  0.68800  Biso   1.000  As
  As4      1.0000 0.94900  0.69400  0.81200  Biso   1.000  As
  O1       1.0000 0.82200  0.36300  0.02590  Biso   1.000  O 
  O2       1.0000 0.34100  0.30100  0.11000  Biso   1.000  O 
  O3       1.0000 0.41700  0.93500  0.13800  Biso   1.000  O 
  O4       1.0000 0.93700  0.12500  0.25000  Biso   1.000  O 
  O5       1.0000 0.56300  0.62500  0.25000  Biso   1.000  O 
  O6       1.0000 0.08280  0.43500  0.36200  Biso   1.000  O 
  O7       1.0000 0.15900  0.80100  0.39000  Biso   1.000  O 
  O8       1.0000 0.67800  0.86300  0.47400  Biso   1.000  O 
  O9       1.0000 0.32200  0.13700  0.52600  Biso   1.000  O 
  O10      1.0000 0.84100  0.19900  0.61000  Biso   1.000  O 
  O11      1.0000 0.91700  0.56500  0.63800  Biso   1.000  O 
  O12      1.0000 0.43700  0.37500  0.75000  Biso   1.000  O 
  O13      1.0000 0.06250  0.87500  0.75000  Biso   1.000  O 
  O14      1.0000 0.58300  0.06460  0.86200  Biso   1.000  O 
  O15      1.0000 0.65900  0.69900  0.89000  Biso   1.000  O 
  O16      1.0000 0.17800  0.63700  0.97400  Biso   1.000  O 
  Zn1      1.0000 0.50000  0.50000  0.00000  Biso   1.000  Zn
  Zn2      1.0000 0.60000  0.13600  0.11400  Biso   1.000  Zn
  Zn3      1.0000 0.90000  0.63600  0.38600  Biso   1.000  Zn
  Zn4      1.0000 0.00000  0.00000  0.50000  Biso   1.000  Zn
  Zn5      1.0000 0.09970  0.36400  0.61400  Biso   1.000  Zn
  Zn6      1.0000 0.40000  0.86400  0.88600  Biso   1.000  Zn
