data_image0
_cell_length_a       5.61357
_cell_length_b       5.61358
_cell_length_c       5.61358
_cell_angle_alpha    31.1371
_cell_angle_beta     31.1371
_cell_angle_gamma    31.1372

_symmetry_space_group_name_H-M    "P 1"
_symmetry_int_tables_number       1

loop_
  _symmetry_equiv_pos_as_xyz
  'x, y, z'

loop_
  _atom_site_label
  _atom_site_occupancy
  _atom_site_fract_x
  _atom_site_fract_y
  _atom_site_fract_z
  _atom_site_thermal_displace_type
  _atom_site_B_iso_or_equiv
  _atom_site_type_symbol
  Fe1      1.0000 0.50000  0.50000  0.50000  Biso   1.000  Fe
  Na1      1.0000 0.00000  0.00000  0.00000  Biso   1.000  Na
  O1       1.0000 0.23500  0.23500  0.23500  Biso   1.000  O 
  O2       1.0000 0.76500  0.76500  0.76500  Biso   1.000  O 
