data_image0
_cell_length_a       3.75196
_cell_length_b       5.20989
_cell_length_c       9.96234
_cell_angle_alpha    90
_cell_angle_beta     90
_cell_angle_gamma    68.8948

_symmetry_space_group_name_H-M    "P 1"
_symmetry_int_tables_number       1

loop_
  _symmetry_equiv_pos_as_xyz
  'x, y, z'

loop_
  _atom_site_label
  _atom_site_occupancy
  _atom_site_fract_x
  _atom_site_fract_y
  _atom_site_fract_z
  _atom_site_thermal_displace_type
  _atom_site_B_iso_or_equiv
  _atom_site_type_symbol
  Mg1      1.0000 0.80200  0.39700  0.25000  Biso   1.000  Mg
  Mg2      1.0000 0.19800  0.60300  0.75000  Biso   1.000  Mg
  O1       1.0000 0.68600  0.62700  0.06250  Biso   1.000  O 
  O2       1.0000 0.95200  0.09520  0.11500  Biso   1.000  O 
  O3       1.0000 0.21900  0.56200  0.25000  Biso   1.000  O 
  O4       1.0000 0.95200  0.09520  0.38500  Biso   1.000  O 
  O5       1.0000 0.68600  0.62700  0.43800  Biso   1.000  O 
  O6       1.0000 0.31400  0.37300  0.56200  Biso   1.000  O 
  O7       1.0000 0.04760  0.90500  0.61500  Biso   1.000  O 
  O8       1.0000 0.78100  0.43800  0.75000  Biso   1.000  O 
  O9       1.0000 0.04760  0.90500  0.88500  Biso   1.000  O 
  O10      1.0000 0.31400  0.37300  0.93800  Biso   1.000  O 
  Ti1      1.0000 0.13400  0.73200  0.06610  Biso   1.000  Ti
  Ti2      1.0000 0.13400  0.73200  0.43400  Biso   1.000  Ti
  Ti3      1.0000 0.86600  0.26800  0.56600  Biso   1.000  Ti
  Ti4      1.0000 0.86600  0.26800  0.93400  Biso   1.000  Ti
