data_image0
_cell_length_a       8.48414
_cell_length_b       11.5752
_cell_length_c       6.60715
_cell_angle_alpha    90
_cell_angle_beta     90
_cell_angle_gamma    90

_symmetry_space_group_name_H-M    "P 1"
_symmetry_int_tables_number       1

loop_
  _symmetry_equiv_pos_as_xyz
  'x, y, z'

loop_
  _atom_site_label
  _atom_site_occupancy
  _atom_site_fract_x
  _atom_site_fract_y
  _atom_site_fract_z
  _atom_site_thermal_displace_type
  _atom_site_B_iso_or_equiv
  _atom_site_type_symbol
  Cs1      1.0000 0.16700  0.08460  0.25000  Biso   1.000  Cs
  Cs2      1.0000 0.66700  0.41500  0.25000  Biso   1.000  Cs
  Cs3      1.0000 0.99800  0.71200  0.25000  Biso   1.000  Cs
  Cs4      1.0000 0.49800  0.78800  0.25000  Biso   1.000  Cs
  Cs5      1.0000 0.50200  0.21200  0.75000  Biso   1.000  Cs
  Cs6      1.0000 0.00169  0.28800  0.75000  Biso   1.000  Cs
  Cs7      1.0000 0.33300  0.58500  0.75000  Biso   1.000  Cs
  Cs8      1.0000 0.83300  0.91500  0.75000  Biso   1.000  Cs
  O1       1.0000 0.78900  0.15600  0.02280  Biso   1.000  O 
  O2       1.0000 0.28900  0.34400  0.02280  Biso   1.000  O 
  O3       1.0000 0.50300  0.07060  0.25000  Biso   1.000  O 
  O4       1.0000 0.00333  0.42900  0.25000  Biso   1.000  O 
  O5       1.0000 0.31000  0.56700  0.25000  Biso   1.000  O 
  O6       1.0000 0.81000  0.93300  0.25000  Biso   1.000  O 
  O7       1.0000 0.78900  0.15600  0.47700  Biso   1.000  O 
  O8       1.0000 0.28900  0.34400  0.47700  Biso   1.000  O 
  O9       1.0000 0.71100  0.65600  0.52300  Biso   1.000  O 
  O10      1.0000 0.21100  0.84400  0.52300  Biso   1.000  O 
  O11      1.0000 0.19000  0.06700  0.75000  Biso   1.000  O 
  O12      1.0000 0.69000  0.43300  0.75000  Biso   1.000  O 
  O13      1.0000 0.99700  0.57100  0.75000  Biso   1.000  O 
  O14      1.0000 0.49700  0.92900  0.75000  Biso   1.000  O 
  O15      1.0000 0.71100  0.65600  0.97700  Biso   1.000  O 
  O16      1.0000 0.21100  0.84400  0.97700  Biso   1.000  O 
  Te1      1.0000 0.72000  0.07830  0.25000  Biso   1.000  Te
  Te2      1.0000 0.22000  0.42200  0.25000  Biso   1.000  Te
  Te3      1.0000 0.78000  0.57800  0.75000  Biso   1.000  Te
  Te4      1.0000 0.28000  0.92200  0.75000  Biso   1.000  Te
