data_image0
_cell_length_a       4.14739
_cell_length_b       4.14739
_cell_length_c       6.89357
_cell_angle_alpha    90
_cell_angle_beta     90
_cell_angle_gamma    114.053

_symmetry_space_group_name_H-M    "P 1"
_symmetry_int_tables_number       1

loop_
  _symmetry_equiv_pos_as_xyz
  'x, y, z'

loop_
  _atom_site_label
  _atom_site_occupancy
  _atom_site_fract_x
  _atom_site_fract_y
  _atom_site_fract_z
  _atom_site_thermal_displace_type
  _atom_site_B_iso_or_equiv
  _atom_site_type_symbol
  F1       1.0000 0.41200  0.02760  0.06920  Biso   1.000  F 
  F2       1.0000 0.69000  0.63600  0.25000  Biso   1.000  F 
  F3       1.0000 0.41200  0.02760  0.43100  Biso   1.000  F 
  F4       1.0000 0.02760  0.41200  0.56900  Biso   1.000  F 
  F5       1.0000 0.63600  0.69000  0.75000  Biso   1.000  F 
  F6       1.0000 0.02760  0.41200  0.93100  Biso   1.000  F 
  Sb1      1.0000 0.83900  0.22200  0.25000  Biso   1.000  Sb
  Sb2      1.0000 0.22200  0.83900  0.75000  Biso   1.000  Sb
