data_image0
_cell_length_a       7.87494
_cell_length_b       7.87494
_cell_length_c       7.87494
_cell_angle_alpha    109.471
_cell_angle_beta     109.471
_cell_angle_gamma    109.471

_symmetry_space_group_name_H-M    "P 1"
_symmetry_int_tables_number       1

loop_
  _symmetry_equiv_pos_as_xyz
  'x, y, z'

loop_
  _atom_site_label
  _atom_site_occupancy
  _atom_site_fract_x
  _atom_site_fract_y
  _atom_site_fract_z
  _atom_site_thermal_displace_type
  _atom_site_B_iso_or_equiv
  _atom_site_type_symbol
  Co1      1.0000 0.50000  0.00000  0.00000  Biso   1.000  Co
  Co2      1.0000 0.00000  0.50000  0.00000  Biso   1.000  Co
  Co3      1.0000 1.00000  0.00000  0.50000  Biso   1.000  Co
  Co4      1.0000 0.50000  0.50000  0.50000  Biso   1.000  Co
  Sb1      1.0000 0.33300  0.49300  0.15900  Biso   1.000  Sb
  Sb2      1.0000 0.66700  0.82600  0.15900  Biso   1.000  Sb
  Sb3      1.0000 0.84100  0.33300  0.17400  Biso   1.000  Sb
  Sb4      1.0000 0.49300  0.15900  0.33300  Biso   1.000  Sb
  Sb5      1.0000 0.17400  0.84100  0.33300  Biso   1.000  Sb
  Sb6      1.0000 0.15900  0.33300  0.49300  Biso   1.000  Sb
  Sb7      1.0000 0.84100  0.66700  0.50700  Biso   1.000  Sb
  Sb8      1.0000 0.82600  0.15900  0.66700  Biso   1.000  Sb
  Sb9      1.0000 0.50700  0.84100  0.66700  Biso   1.000  Sb
  Sb10     1.0000 0.15900  0.66700  0.82600  Biso   1.000  Sb
  Sb11     1.0000 0.33300  0.17400  0.84100  Biso   1.000  Sb
  Sb12     1.0000 0.66700  0.50700  0.84100  Biso   1.000  Sb
