data_image0
_cell_length_a       3.17325
_cell_length_b       3.17325
_cell_length_c       6.55966
_cell_angle_alpha    76.0027
_cell_angle_beta     103.997
_cell_angle_gamma    120

_symmetry_space_group_name_H-M    "P 1"
_symmetry_int_tables_number       1

loop_
  _symmetry_equiv_pos_as_xyz
  'x, y, z'

loop_
  _atom_site_label
  _atom_site_occupancy
  _atom_site_fract_x
  _atom_site_fract_y
  _atom_site_fract_z
  _atom_site_thermal_displace_type
  _atom_site_B_iso_or_equiv
  _atom_site_type_symbol
  Mo1      1.0000 0.00000  0.00000  0.00000  Biso   1.000  Mo
  S1       1.0000 0.75100  0.24900  0.25400  Biso   1.000  S 
  S2       1.0000 0.24900  0.75100  0.74600  Biso   1.000  S 
