data_image0
_cell_length_a       6.15982
_cell_length_b       12.394
_cell_length_c       16.5198
_cell_angle_alpha    90
_cell_angle_beta     117.066
_cell_angle_gamma    90

_symmetry_space_group_name_H-M    "P 1"
_symmetry_int_tables_number       1

loop_
  _symmetry_equiv_pos_as_xyz
  'x, y, z'

loop_
  _atom_site_label
  _atom_site_occupancy
  _atom_site_fract_x
  _atom_site_fract_y
  _atom_site_fract_z
  _atom_site_thermal_displace_type
  _atom_site_B_iso_or_equiv
  _atom_site_type_symbol
  K1       1.0000 0.00395  0.30300  0.20300  Biso   1.000  K 
  K2       1.0000 0.99600  0.80300  0.29700  Biso   1.000  K 
  K3       1.0000 0.99600  0.69700  0.79700  Biso   1.000  K 
  K4       1.0000 0.00395  0.19700  0.70300  Biso   1.000  K 
  K5       1.0000 0.28200  0.99900  0.22100  Biso   1.000  K 
  K6       1.0000 0.71800  0.49900  0.27900  Biso   1.000  K 
  K7       1.0000 0.71800  0.00064  0.77900  Biso   1.000  K 
  K8       1.0000 0.28200  0.50100  0.72100  Biso   1.000  K 
  K9       1.0000 0.08870  0.10700  0.35700  Biso   1.000  K 
  K10      1.0000 0.91100  0.60700  0.14300  Biso   1.000  K 
  K11      1.0000 0.91100  0.89300  0.64300  Biso   1.000  K 
  K12      1.0000 0.08870  0.39300  0.85700  Biso   1.000  K 
  K13      1.0000 0.30200  0.37900  0.42000  Biso   1.000  K 
  K14      1.0000 0.69800  0.87900  0.08010  Biso   1.000  K 
  K15      1.0000 0.69800  0.62100  0.58000  Biso   1.000  K 
  K16      1.0000 0.30200  0.12100  0.92000  Biso   1.000  K 
  K17      1.0000 0.92500  0.14400  0.00759  Biso   1.000  K 
  K18      1.0000 0.07520  0.64400  0.49200  Biso   1.000  K 
  K19      1.0000 0.07520  0.85600  0.99200  Biso   1.000  K 
  K20      1.0000 0.92500  0.35600  0.50800  Biso   1.000  K 
  K21      1.0000 0.70800  0.08770  0.47100  Biso   1.000  K 
  K22      1.0000 0.29200  0.58800  0.02930  Biso   1.000  K 
  K23      1.0000 0.29200  0.91200  0.52900  Biso   1.000  K 
  K24      1.0000 0.70800  0.41200  0.97100  Biso   1.000  K 
  O1       1.0000 0.43400  0.22600  0.34300  Biso   1.000  O 
  O2       1.0000 0.56600  0.72600  0.15700  Biso   1.000  O 
  O3       1.0000 0.56600  0.77400  0.65700  Biso   1.000  O 
  O4       1.0000 0.43400  0.27400  0.84300  Biso   1.000  O 
  O5       1.0000 0.53700  0.23000  0.08150  Biso   1.000  O 
  O6       1.0000 0.46300  0.73000  0.41800  Biso   1.000  O 
  O7       1.0000 0.46300  0.77000  0.91800  Biso   1.000  O 
  O8       1.0000 0.53700  0.27000  0.58200  Biso   1.000  O 
  O9       1.0000 0.15000  0.36700  0.02300  Biso   1.000  O 
  O10      1.0000 0.85000  0.86700  0.47700  Biso   1.000  O 
  O11      1.0000 0.85000  0.63300  0.97700  Biso   1.000  O 
  O12      1.0000 0.15000  0.13300  0.52300  Biso   1.000  O 
  O13      1.0000 0.86400  0.07650  0.15300  Biso   1.000  O 
  O14      1.0000 0.13600  0.57600  0.34700  Biso   1.000  O 
  O15      1.0000 0.13600  0.92400  0.84700  Biso   1.000  O 
  O16      1.0000 0.86400  0.42400  0.65300  Biso   1.000  O 
  O17      1.0000 0.61200  0.13600  0.23900  Biso   1.000  O 
  O18      1.0000 0.38800  0.63600  0.26100  Biso   1.000  O 
  O19      1.0000 0.38800  0.86400  0.76100  Biso   1.000  O 
  O20      1.0000 0.61200  0.36400  0.73900  Biso   1.000  O 
  O21      1.0000 0.41300  0.32900  0.19900  Biso   1.000  O 
  O22      1.0000 0.58700  0.82900  0.30100  Biso   1.000  O 
  O23      1.0000 0.58700  0.67100  0.80100  Biso   1.000  O 
  O24      1.0000 0.41300  0.17100  0.69900  Biso   1.000  O 
  O25      1.0000 0.62400  0.43700  0.11300  Biso   1.000  O 
  O26      1.0000 0.37600  0.93700  0.38700  Biso   1.000  O 
  O27      1.0000 0.37600  0.56300  0.88700  Biso   1.000  O 
  O28      1.0000 0.62400  0.06250  0.61300  Biso   1.000  O 
  O29      1.0000 0.85600  0.30100  0.34100  Biso   1.000  O 
  O30      1.0000 0.14400  0.80100  0.15900  Biso   1.000  O 
  O31      1.0000 0.14400  0.69900  0.65900  Biso   1.000  O 
  O32      1.0000 0.85600  0.19900  0.84100  Biso   1.000  O 
  O33      1.0000 0.37200  0.02990  0.07980  Biso   1.000  O 
  O34      1.0000 0.62800  0.53000  0.42000  Biso   1.000  O 
  O35      1.0000 0.62800  0.97000  0.92000  Biso   1.000  O 
  O36      1.0000 0.37200  0.47000  0.58000  Biso   1.000  O 
  Si1      1.0000 0.58600  0.25000  0.28800  Biso   1.000  Si
  Si2      1.0000 0.41400  0.75000  0.21200  Biso   1.000  Si
  Si3      1.0000 0.41400  0.75000  0.71200  Biso   1.000  Si
  Si4      1.0000 0.58600  0.25000  0.78800  Biso   1.000  Si
  Si5      1.0000 0.59500  0.11100  0.13600  Biso   1.000  Si
  Si6      1.0000 0.40500  0.61100  0.36400  Biso   1.000  Si
  Si7      1.0000 0.40500  0.88900  0.86400  Biso   1.000  Si
  Si8      1.0000 0.59500  0.38900  0.63600  Biso   1.000  Si
  Si9      1.0000 0.42300  0.34700  0.09940  Biso   1.000  Si
  Si10     1.0000 0.57700  0.84700  0.40100  Biso   1.000  Si
  Si11     1.0000 0.57700  0.65300  0.90100  Biso   1.000  Si
  Si12     1.0000 0.42300  0.15300  0.59900  Biso   1.000  Si
