data_image0
_cell_length_a       4.79995
_cell_length_b       5.45012
_cell_length_c       6.78796
_cell_angle_alpha    102.874
_cell_angle_beta     110.705
_cell_angle_gamma    90

_symmetry_space_group_name_H-M    "P 1"
_symmetry_int_tables_number       1

loop_
  _symmetry_equiv_pos_as_xyz
  'x, y, z'

loop_
  _atom_site_label
  _atom_site_occupancy
  _atom_site_fract_x
  _atom_site_fract_y
  _atom_site_fract_z
  _atom_site_thermal_displace_type
  _atom_site_B_iso_or_equiv
  _atom_site_type_symbol
  O1       1.0000 0.43000  0.25000  0.00000  Biso   1.000  O 
  O2       1.0000 0.57000  0.75000  0.00000  Biso   1.000  O 
  O3       1.0000 0.00923  0.44400  0.20000  Biso   1.000  O 
  O4       1.0000 0.19100  0.94400  0.20000  Biso   1.000  O 
  O5       1.0000 0.62100  0.62600  0.40500  Biso   1.000  O 
  O6       1.0000 0.78400  0.12600  0.40500  Biso   1.000  O 
  O7       1.0000 0.21600  0.87400  0.59500  Biso   1.000  O 
  O8       1.0000 0.37900  0.37400  0.59500  Biso   1.000  O 
  O9       1.0000 0.80900  0.05630  0.80000  Biso   1.000  O 
  O10      1.0000 0.99100  0.55600  0.80000  Biso   1.000  O 
  Sb1      1.0000 0.89700  0.77900  0.27500  Biso   1.000  Sb
  Sb2      1.0000 0.37800  0.27900  0.27500  Biso   1.000  Sb
  Sb3      1.0000 0.62200  0.72100  0.72500  Biso   1.000  Sb
  Sb4      1.0000 0.10300  0.22100  0.72500  Biso   1.000  Sb
