data_image0
_cell_length_a       5.91127
_cell_length_b       6.34495
_cell_length_c       8.16173
_cell_angle_alpha    90
_cell_angle_beta     90
_cell_angle_gamma    62.2364

_symmetry_space_group_name_H-M    "P 1"
_symmetry_int_tables_number       1

loop_
  _symmetry_equiv_pos_as_xyz
  'x, y, z'

loop_
  _atom_site_label
  _atom_site_occupancy
  _atom_site_fract_x
  _atom_site_fract_y
  _atom_site_fract_z
  _atom_site_thermal_displace_type
  _atom_site_B_iso_or_equiv
  _atom_site_type_symbol
  As1      1.0000 0.62400  0.75100  0.11500  Biso   1.000  As
  As2      1.0000 0.12400  0.75100  0.38500  Biso   1.000  As
  As3      1.0000 0.87600  0.24900  0.61500  Biso   1.000  As
  As4      1.0000 0.37600  0.24900  0.88500  Biso   1.000  As
  Ni1      1.0000 0.00000  0.00000  0.00000  Biso   1.000  Ni
  Ni2      1.0000 0.11700  0.26600  0.25000  Biso   1.000  Ni
  Ni3      1.0000 0.61700  0.26600  0.25000  Biso   1.000  Ni
  Ni4      1.0000 0.50000  0.00000  0.50000  Biso   1.000  Ni
  Ni5      1.0000 0.38300  0.73400  0.75000  Biso   1.000  Ni
  Ni6      1.0000 0.88300  0.73400  0.75000  Biso   1.000  Ni
  O1       1.0000 0.13700  0.24400  0.00121  Biso   1.000  O 
  O2       1.0000 0.61900  0.24400  0.00121  Biso   1.000  O 
  O3       1.0000 0.74800  0.50400  0.23800  Biso   1.000  O 
  O4       1.0000 0.50000  0.00000  0.25000  Biso   1.000  O 
  O5       1.0000 0.00017  0.00000  0.25000  Biso   1.000  O 
  O6       1.0000 0.24800  0.50400  0.26200  Biso   1.000  O 
  O7       1.0000 0.11900  0.24400  0.49900  Biso   1.000  O 
  O8       1.0000 0.63700  0.24400  0.49900  Biso   1.000  O 
  O9       1.0000 0.36300  0.75600  0.50100  Biso   1.000  O 
  O10      1.0000 0.88100  0.75600  0.50100  Biso   1.000  O 
  O11      1.0000 0.75200  0.49600  0.73800  Biso   1.000  O 
  O12      1.0000 0.00000  0.00034  0.75000  Biso   1.000  O 
  O13      1.0000 0.50000  0.00034  0.75000  Biso   1.000  O 
  O14      1.0000 0.25200  0.49600  0.76200  Biso   1.000  O 
  O15      1.0000 0.38100  0.75600  0.99900  Biso   1.000  O 
  O16      1.0000 0.86300  0.75600  0.99900  Biso   1.000  O 
