data_image0
_cell_length_a       7.96941
_cell_length_b       7.96941
_cell_length_c       8.43901
_cell_angle_alpha    118.176
_cell_angle_beta     90
_cell_angle_gamma    120

_symmetry_space_group_name_H-M    "P 1"
_symmetry_int_tables_number       1

loop_
  _symmetry_equiv_pos_as_xyz
  'x, y, z'

loop_
  _atom_site_label
  _atom_site_occupancy
  _atom_site_fract_x
  _atom_site_fract_y
  _atom_site_fract_z
  _atom_site_thermal_displace_type
  _atom_site_B_iso_or_equiv
  _atom_site_type_symbol
  Al1      1.0000 0.35200  0.70400  0.05600  Biso   1.000  Al
  Al2      1.0000 0.14200  0.28400  0.42700  Biso   1.000  Al
  Al3      1.0000 0.85800  0.71600  0.57300  Biso   1.000  Al
  Al4      1.0000 0.64800  0.29600  0.94400  Biso   1.000  Al
  O1       1.0000 0.84100  0.31800  0.09520  Biso   1.000  O 
  O2       1.0000 0.77700  0.61800  0.09520  Biso   1.000  O 
  O3       1.0000 0.47700  0.25400  0.09520  Biso   1.000  O 
  O4       1.0000 0.54000  0.72200  0.20800  Biso   1.000  O 
  O5       1.0000 0.48600  0.02610  0.20800  Biso   1.000  O 
  O6       1.0000 0.18200  0.66800  0.20800  Biso   1.000  O 
  O7       1.0000 0.88800  0.00942  0.26600  Biso   1.000  O 
  O8       1.0000 0.25600  0.14500  0.26600  Biso   1.000  O 
  O9       1.0000 0.12100  0.37700  0.26600  Biso   1.000  O 
  O10      1.0000 0.80200  0.81000  0.42700  Biso   1.000  O 
  O11      1.0000 0.61700  0.41900  0.42700  Biso   1.000  O 
  O12      1.0000 0.00806  0.62500  0.42700  Biso   1.000  O 
  O13      1.0000 0.38300  0.58100  0.57300  Biso   1.000  O 
  O14      1.0000 0.19800  0.19000  0.57300  Biso   1.000  O 
  O15      1.0000 0.99200  0.37500  0.57300  Biso   1.000  O 
  O16      1.0000 0.87900  0.62300  0.73400  Biso   1.000  O 
  O17      1.0000 0.74400  0.85500  0.73400  Biso   1.000  O 
  O18      1.0000 0.11200  0.99100  0.73400  Biso   1.000  O 
  O19      1.0000 0.81800  0.33200  0.79200  Biso   1.000  O 
  O20      1.0000 0.51400  0.97400  0.79200  Biso   1.000  O 
  O21      1.0000 0.46000  0.27800  0.79200  Biso   1.000  O 
  O22      1.0000 0.52300  0.74600  0.90500  Biso   1.000  O 
  O23      1.0000 0.22300  0.38200  0.90500  Biso   1.000  O 
  O24      1.0000 0.15900  0.68200  0.90500  Biso   1.000  O 
  S1       1.0000 0.75100  0.78900  0.24900  Biso   1.000  S 
  S2       1.0000 0.46000  0.21100  0.24900  Biso   1.000  S 
  S3       1.0000 0.03730  0.49700  0.24900  Biso   1.000  S 
  S4       1.0000 0.96300  0.50300  0.75100  Biso   1.000  S 
  S5       1.0000 0.54000  0.78900  0.75100  Biso   1.000  S 
  S6       1.0000 0.24900  0.21100  0.75100  Biso   1.000  S 
