data_image0
_cell_length_a       3.18495
_cell_length_b       3.18494
_cell_length_c       6.64449
_cell_angle_alpha    76.133
_cell_angle_beta     103.867
_cell_angle_gamma    120

_symmetry_space_group_name_H-M    "P 1"
_symmetry_int_tables_number       1

loop_
  _symmetry_equiv_pos_as_xyz
  'x, y, z'

loop_
  _atom_site_label
  _atom_site_occupancy
  _atom_site_fract_x
  _atom_site_fract_y
  _atom_site_fract_z
  _atom_site_thermal_displace_type
  _atom_site_B_iso_or_equiv
  _atom_site_type_symbol
  S1       1.0000 0.74800  0.25200  0.24400  Biso   1.000  S 
  S2       1.0000 0.58400  0.41600  0.75100  Biso   1.000  S 
  W1       1.0000 0.99900  0.00067  0.99800  Biso   1.000  W 
