data_image0
_cell_length_a       8.77905
_cell_length_b       5.04998
_cell_length_c       7.81501
_cell_angle_alpha    90
_cell_angle_beta     90.0034
_cell_angle_gamma    90

_symmetry_space_group_name_H-M    "P 1"
_symmetry_int_tables_number       1

loop_
  _symmetry_equiv_pos_as_xyz
  'x, y, z'

loop_
  _atom_site_label
  _atom_site_occupancy
  _atom_site_fract_x
  _atom_site_fract_y
  _atom_site_fract_z
  _atom_site_thermal_displace_type
  _atom_site_B_iso_or_equiv
  _atom_site_type_symbol
  B1       1.0000 0.69300  0.99900  0.05260  Biso   1.000  B 
  B2       1.0000 0.50000  0.32300  0.14600  Biso   1.000  B 
  B3       1.0000 0.33700  0.67500  0.24300  Biso   1.000  B 
  B4       1.0000 0.83700  0.67500  0.25700  Biso   1.000  B 
  B5       1.0000 0.00000  0.32300  0.35400  Biso   1.000  B 
  B6       1.0000 0.19300  0.99900  0.44700  Biso   1.000  B 
  B7       1.0000 0.80700  0.49900  0.55300  Biso   1.000  B 
  B8       1.0000 0.00000  0.82300  0.64600  Biso   1.000  B 
  B9       1.0000 0.16300  0.17500  0.74300  Biso   1.000  B 
  B10      1.0000 0.66300  0.17500  0.75700  Biso   1.000  B 
  B11      1.0000 0.50000  0.82300  0.85400  Biso   1.000  B 
  B12      1.0000 0.30700  0.49900  0.94700  Biso   1.000  B 
  Na1      1.0000 0.08430  0.99500  0.06470  Biso   1.000  Na
  Na2      1.0000 0.58400  0.99500  0.43500  Biso   1.000  Na
  Na3      1.0000 0.41600  0.49500  0.56500  Biso   1.000  Na
  Na4      1.0000 0.91600  0.49500  0.93500  Biso   1.000  Na
  O1       1.0000 0.58000  0.80100  0.00195  Biso   1.000  O 
  O2       1.0000 0.25500  0.66600  0.09520  Biso   1.000  O 
  O3       1.0000 0.82500  0.86000  0.12700  Biso   1.000  O 
  O4       1.0000 0.62700  0.17800  0.18100  Biso   1.000  O 
  O5       1.0000 0.94900  0.48700  0.22200  Biso   1.000  O 
  O6       1.0000 0.44900  0.48700  0.27800  Biso   1.000  O 
  O7       1.0000 0.12700  0.17800  0.31900  Biso   1.000  O 
  O8       1.0000 0.32500  0.86000  0.37300  Biso   1.000  O 
  O9       1.0000 0.75500  0.66600  0.40500  Biso   1.000  O 
  O10      1.0000 0.07990  0.80100  0.49800  Biso   1.000  O 
  O11      1.0000 0.92000  0.30100  0.50200  Biso   1.000  O 
  O12      1.0000 0.24500  0.16600  0.59500  Biso   1.000  O 
  O13      1.0000 0.67500  0.36000  0.62700  Biso   1.000  O 
  O14      1.0000 0.87300  0.67800  0.68100  Biso   1.000  O 
  O15      1.0000 0.55100  0.98700  0.72200  Biso   1.000  O 
  O16      1.0000 0.05070  0.98700  0.77800  Biso   1.000  O 
  O17      1.0000 0.37300  0.67800  0.81900  Biso   1.000  O 
  O18      1.0000 0.17500  0.36000  0.87300  Biso   1.000  O 
  O19      1.0000 0.74500  0.16600  0.90500  Biso   1.000  O 
  O20      1.0000 0.42000  0.30100  0.99800  Biso   1.000  O 
