data_image0
_cell_length_a       7.51517
_cell_length_b       6.04044
_cell_length_c       9.46506
_cell_angle_alpha    90
_cell_angle_beta     114.678
_cell_angle_gamma    90

_symmetry_space_group_name_H-M    "P 1"
_symmetry_int_tables_number       1

loop_
  _symmetry_equiv_pos_as_xyz
  'x, y, z'

loop_
  _atom_site_label
  _atom_site_occupancy
  _atom_site_fract_x
  _atom_site_fract_y
  _atom_site_fract_z
  _atom_site_thermal_displace_type
  _atom_site_B_iso_or_equiv
  _atom_site_type_symbol
  As1      1.0000 0.79100  0.52000  0.09700  Biso   1.000  As
  As2      1.0000 0.20900  0.01990  0.40300  Biso   1.000  As
  As3      1.0000 0.79100  0.98000  0.59700  Biso   1.000  As
  As4      1.0000 0.20900  0.48000  0.90300  Biso   1.000  As
  O1       1.0000 0.29100  0.25000  0.01780  Biso   1.000  O 
  O2       1.0000 0.26900  0.71000  0.02410  Biso   1.000  O 
  O3       1.0000 0.03490  0.54200  0.21400  Biso   1.000  O 
  O4       1.0000 0.67900  0.47600  0.22200  Biso   1.000  O 
  O5       1.0000 0.32100  0.97600  0.27800  Biso   1.000  O 
  O6       1.0000 0.96500  0.04160  0.28600  Biso   1.000  O 
  O7       1.0000 0.73100  0.21000  0.47600  Biso   1.000  O 
  O8       1.0000 0.70900  0.75000  0.48200  Biso   1.000  O 
  O9       1.0000 0.29100  0.25000  0.51800  Biso   1.000  O 
  O10      1.0000 0.26900  0.79000  0.52400  Biso   1.000  O 
  O11      1.0000 0.03490  0.95800  0.71400  Biso   1.000  O 
  O12      1.0000 0.67900  0.02400  0.72200  Biso   1.000  O 
  O13      1.0000 0.32100  0.52400  0.77800  Biso   1.000  O 
  O14      1.0000 0.96500  0.45800  0.78600  Biso   1.000  O 
  O15      1.0000 0.73100  0.29000  0.97600  Biso   1.000  O 
  O16      1.0000 0.70900  0.75000  0.98200  Biso   1.000  O 
  Pb1      1.0000 0.00000  0.00000  0.00000  Biso   1.000  Pb
  Pb2      1.0000 0.61800  0.07510  0.20900  Biso   1.000  Pb
  Pb3      1.0000 0.38200  0.57500  0.29100  Biso   1.000  Pb
  Pb4      1.0000 0.00000  0.50000  0.50000  Biso   1.000  Pb
  Pb5      1.0000 0.61800  0.42500  0.70900  Biso   1.000  Pb
  Pb6      1.0000 0.38200  0.92500  0.79100  Biso   1.000  Pb
