data_image0
_cell_length_a       5.65376
_cell_length_b       5.65376
_cell_length_c       5.65376
_cell_angle_alpha    107.256
_cell_angle_beta     113.998
_cell_angle_gamma    107.256

_symmetry_space_group_name_H-M    "P 1"
_symmetry_int_tables_number       1

loop_
  _symmetry_equiv_pos_as_xyz
  'x, y, z'

loop_
  _atom_site_label
  _atom_site_occupancy
  _atom_site_fract_x
  _atom_site_fract_y
  _atom_site_fract_z
  _atom_site_thermal_displace_type
  _atom_site_B_iso_or_equiv
  _atom_site_type_symbol
  As1      1.0000 0.62500  0.75000  0.37500  Biso   1.000  As
  As2      1.0000 0.37500  0.25000  0.62500  Biso   1.000  As
  O1       1.0000 0.25100  0.56100  0.18900  Biso   1.000  O 
  O2       1.0000 0.62800  0.93900  0.18900  Biso   1.000  O 
  O3       1.0000 0.18900  0.06140  0.25100  Biso   1.000  O 
  O4       1.0000 0.81100  0.56100  0.37200  Biso   1.000  O 
  O5       1.0000 0.18900  0.43900  0.62800  Biso   1.000  O 
  O6       1.0000 0.81100  0.93900  0.74900  Biso   1.000  O 
  O7       1.0000 0.37200  0.06140  0.81100  Biso   1.000  O 
  O8       1.0000 0.74900  0.43900  0.81100  Biso   1.000  O 
  Sc1      1.0000 0.87500  0.25000  0.12500  Biso   1.000  Sc
  Sc2      1.0000 0.12500  0.75000  0.87500  Biso   1.000  Sc
