data_image0
_cell_length_a       5.43462
_cell_length_b       7.78973
_cell_length_c       7.78973
_cell_angle_alpha    69.2396
_cell_angle_beta     103.658
_cell_angle_gamma    103.658

_symmetry_space_group_name_H-M    "P 1"
_symmetry_int_tables_number       1

loop_
  _symmetry_equiv_pos_as_xyz
  'x, y, z'

loop_
  _atom_site_label
  _atom_site_occupancy
  _atom_site_fract_x
  _atom_site_fract_y
  _atom_site_fract_z
  _atom_site_thermal_displace_type
  _atom_site_B_iso_or_equiv
  _atom_site_type_symbol
  Al1      1.0000 0.30300  0.25000  0.07600  Biso   1.000  Al
  Al2      1.0000 0.80300  0.07600  0.25000  Biso   1.000  Al
  Al3      1.0000 0.76000  0.43900  0.32100  Biso   1.000  Al
  Al4      1.0000 0.26000  0.32100  0.43900  Biso   1.000  Al
  Al5      1.0000 0.74000  0.67900  0.56100  Biso   1.000  Al
  Al6      1.0000 0.24000  0.56100  0.67900  Biso   1.000  Al
  Al7      1.0000 0.19700  0.92400  0.75000  Biso   1.000  Al
  Al8      1.0000 0.69700  0.75000  0.92400  Biso   1.000  Al
  Ca1      1.0000 0.25000  0.80700  0.19300  Biso   1.000  Ca
  Ca2      1.0000 0.75000  0.19300  0.80700  Biso   1.000  Ca
  O1       1.0000 0.57000  0.17000  0.05930  Biso   1.000  O 
  O2       1.0000 0.85700  0.62600  0.13700  Biso   1.000  O 
  O3       1.0000 0.06950  0.05930  0.17000  Biso   1.000  O 
  O4       1.0000 0.42100  0.36700  0.24800  Biso   1.000  O 
  O5       1.0000 0.92100  0.24800  0.36700  Biso   1.000  O 
  O6       1.0000 0.64300  0.86300  0.37400  Biso   1.000  O 
  O7       1.0000 0.25000  0.53500  0.46500  Biso   1.000  O 
  O8       1.0000 0.75000  0.46500  0.53500  Biso   1.000  O 
  O9       1.0000 0.35700  0.13700  0.62600  Biso   1.000  O 
  O10      1.0000 0.07920  0.75200  0.63300  Biso   1.000  O 
  O11      1.0000 0.57900  0.63300  0.75200  Biso   1.000  O 
  O12      1.0000 0.93000  0.94100  0.83000  Biso   1.000  O 
  O13      1.0000 0.14300  0.37400  0.86300  Biso   1.000  O 
  O14      1.0000 0.43000  0.83000  0.94100  Biso   1.000  O 
