data_image0
_cell_length_a       4.56823
_cell_length_b       5.72975
_cell_length_c       5.72975
_cell_angle_alpha    97.5232
_cell_angle_beta     113.493
_cell_angle_gamma    66.5067

_symmetry_space_group_name_H-M    "P 1"
_symmetry_int_tables_number       1

loop_
  _symmetry_equiv_pos_as_xyz
  'x, y, z'

loop_
  _atom_site_label
  _atom_site_occupancy
  _atom_site_fract_x
  _atom_site_fract_y
  _atom_site_fract_z
  _atom_site_thermal_displace_type
  _atom_site_B_iso_or_equiv
  _atom_site_type_symbol
  Ca1      1.0000 0.75000  0.70000  0.20000  Biso   1.000  Ca
  Ca2      1.0000 0.25000  0.30000  0.80000  Biso   1.000  Ca
  Zn1      1.0000 0.05960  0.10500  0.22400  Biso   1.000  Zn
  Zn2      1.0000 0.56000  0.27600  0.39500  Biso   1.000  Zn
  Zn3      1.0000 0.44000  0.72400  0.60500  Biso   1.000  Zn
  Zn4      1.0000 0.94000  0.89500  0.77600  Biso   1.000  Zn
