data_image0
_cell_length_a       4.36651
_cell_length_b       6.73968
_cell_length_c       6.73968
_cell_angle_alpha    96.0236
_cell_angle_beta     108.901
_cell_angle_gamma    71.0986

_symmetry_space_group_name_H-M    "P 1"
_symmetry_int_tables_number       1

loop_
  _symmetry_equiv_pos_as_xyz
  'x, y, z'

loop_
  _atom_site_label
  _atom_site_occupancy
  _atom_site_fract_x
  _atom_site_fract_y
  _atom_site_fract_z
  _atom_site_thermal_displace_type
  _atom_site_B_iso_or_equiv
  _atom_site_type_symbol
  Fe1      1.0000 0.68900  0.18400  0.02780  Biso   1.000  Fe
  Fe2      1.0000 0.07150  0.39000  0.04990  Biso   1.000  Fe
  Fe3      1.0000 0.33900  0.97200  0.18400  Biso   1.000  Fe
  Fe4      1.0000 0.37300  0.60700  0.33200  Biso   1.000  Fe
  Fe5      1.0000 0.97800  0.95000  0.39000  Biso   1.000  Fe
  Fe6      1.0000 0.02060  0.33200  0.39300  Biso   1.000  Fe
  Fe7      1.0000 0.95900  0.66800  0.60700  Biso   1.000  Fe
  Fe8      1.0000 0.53800  0.04990  0.61000  Biso   1.000  Fe
  Fe9      1.0000 0.64700  0.39300  0.66800  Biso   1.000  Fe
  Fe10     1.0000 0.12700  0.02780  0.81600  Biso   1.000  Fe
  Fe11     1.0000 0.41200  0.61000  0.95000  Biso   1.000  Fe
  Fe12     1.0000 0.84500  0.81600  0.97200  Biso   1.000  Fe
  P1       1.0000 0.79700  0.66500  0.24600  Biso   1.000  P 
  P2       1.0000 0.53800  0.24600  0.33500  Biso   1.000  P 
  P3       1.0000 0.44900  0.75400  0.66500  Biso   1.000  P 
  P4       1.0000 0.21600  0.33500  0.75400  Biso   1.000  P 
