data_image0
_cell_length_a       10.032
_cell_length_b       5.41014
_cell_length_c       5.45778
_cell_angle_alpha    90
_cell_angle_beta     90
_cell_angle_gamma    105.643

_symmetry_space_group_name_H-M    "P 1"
_symmetry_int_tables_number       1

loop_
  _symmetry_equiv_pos_as_xyz
  'x, y, z'

loop_
  _atom_site_label
  _atom_site_occupancy
  _atom_site_fract_x
  _atom_site_fract_y
  _atom_site_fract_z
  _atom_site_thermal_displace_type
  _atom_site_B_iso_or_equiv
  _atom_site_type_symbol
  Ca1      1.0000 0.62400  0.55300  0.04150  Biso   1.000  Ca
  Ca2      1.0000 0.37600  0.92800  0.04150  Biso   1.000  Ca
  Ca3      1.0000 0.00000  0.25600  0.45700  Biso   1.000  Ca
  Ca4      1.0000 0.62400  0.07160  0.54100  Biso   1.000  Ca
  Ca5      1.0000 0.37600  0.44700  0.54100  Biso   1.000  Ca
  Ca6      1.0000 0.00000  0.74400  0.95700  Biso   1.000  Ca
  O1       1.0000 0.00000  0.17200  0.01650  Biso   1.000  O 
  O2       1.0000 0.83400  0.45800  0.20600  Biso   1.000  O 
  O3       1.0000 0.16600  0.62500  0.20600  Biso   1.000  O 
  O4       1.0000 0.22800  0.15600  0.29000  Biso   1.000  O 
  O5       1.0000 0.77200  0.92900  0.29000  Biso   1.000  O 
  O6       1.0000 0.60300  0.48200  0.47600  Biso   1.000  O 
  O7       1.0000 0.39700  0.88000  0.47600  Biso   1.000  O 
  O8       1.0000 0.00000  0.82800  0.51700  Biso   1.000  O 
  O9       1.0000 0.83400  0.37500  0.70600  Biso   1.000  O 
  O10      1.0000 0.16600  0.54200  0.70600  Biso   1.000  O 
  O11      1.0000 0.22800  0.07120  0.79000  Biso   1.000  O 
  O12      1.0000 0.77200  0.84400  0.79000  Biso   1.000  O 
  O13      1.0000 0.60300  0.12000  0.97600  Biso   1.000  O 
  O14      1.0000 0.39700  0.51800  0.97600  Biso   1.000  O 
  Ti1      1.0000 0.80000  0.15000  0.00377  Biso   1.000  Ti
  Ti2      1.0000 0.20000  0.35000  0.00377  Biso   1.000  Ti
  Ti3      1.0000 0.80000  0.65000  0.50400  Biso   1.000  Ti
  Ti4      1.0000 0.20000  0.85000  0.50400  Biso   1.000  Ti
