data_image0
_cell_length_a       3.80472
_cell_length_b       3.80472
_cell_length_c       14.3684
_cell_angle_alpha    97.5976
_cell_angle_beta     97.5976
_cell_angle_gamma    90.0799

_symmetry_space_group_name_H-M    "P 1"
_symmetry_int_tables_number       1

loop_
  _symmetry_equiv_pos_as_xyz
  'x, y, z'

loop_
  _atom_site_label
  _atom_site_occupancy
  _atom_site_fract_x
  _atom_site_fract_y
  _atom_site_fract_z
  _atom_site_thermal_displace_type
  _atom_site_B_iso_or_equiv
  _atom_site_type_symbol
  Co1      1.0000 0.00000  0.00000  0.00000  Biso   1.000  Co
  Co2      1.0000 0.13900  0.13900  0.27900  Biso   1.000  Co
  Co3      1.0000 0.86100  0.86100  0.72100  Biso   1.000  Co
  La1      1.0000 0.56600  0.56600  0.13200  Biso   1.000  La
  La2      1.0000 0.70000  0.70000  0.39900  Biso   1.000  La
  La3      1.0000 0.30000  0.30000  0.60100  Biso   1.000  La
  La4      1.0000 0.43400  0.43400  0.86800  Biso   1.000  La
  O1       1.0000 0.50000  0.00000  0.00000  Biso   1.000  O 
  O2       1.0000 0.00000  0.50000  0.00000  Biso   1.000  O 
  O3       1.0000 0.06700  0.06700  0.13400  Biso   1.000  O 
  O4       1.0000 0.64000  0.14000  0.28000  Biso   1.000  O 
  O5       1.0000 0.14000  0.64000  0.28000  Biso   1.000  O 
  O6       1.0000 0.21800  0.21800  0.43600  Biso   1.000  O 
  O7       1.0000 0.78200  0.78200  0.56400  Biso   1.000  O 
  O8       1.0000 0.86000  0.36000  0.72000  Biso   1.000  O 
  O9       1.0000 0.36000  0.86000  0.72000  Biso   1.000  O 
  O10      1.0000 0.93300  0.93300  0.86600  Biso   1.000  O 
