data_image0
_cell_length_a       4.24033
_cell_length_b       4.44782
_cell_length_c       10.8211
_cell_angle_alpha    90
_cell_angle_beta     90
_cell_angle_gamma    90

_symmetry_space_group_name_H-M    "P 1"
_symmetry_int_tables_number       1

loop_
  _symmetry_equiv_pos_as_xyz
  'x, y, z'

loop_
  _atom_site_label
  _atom_site_occupancy
  _atom_site_fract_x
  _atom_site_fract_y
  _atom_site_fract_z
  _atom_site_thermal_displace_type
  _atom_site_B_iso_or_equiv
  _atom_site_type_symbol
  B1       1.0000 0.47600  0.67400  0.12200  Biso   1.000  B 
  B2       1.0000 0.00130  0.82300  0.24900  Biso   1.000  B 
  B3       1.0000 0.50100  0.17700  0.25100  Biso   1.000  B 
  B4       1.0000 0.97600  0.32600  0.37800  Biso   1.000  B 
  B5       1.0000 0.97600  0.32600  0.62200  Biso   1.000  B 
  B6       1.0000 0.50100  0.17700  0.74900  Biso   1.000  B 
  B7       1.0000 0.00130  0.82300  0.75100  Biso   1.000  B 
  B8       1.0000 0.47600  0.67400  0.87800  Biso   1.000  B 
  O1       1.0000 0.58500  0.76700  0.00000  Biso   1.000  O 
  O2       1.0000 0.14200  0.72900  0.13600  Biso   1.000  O 
  O3       1.0000 0.55000  0.35900  0.14300  Biso   1.000  O 
  O4       1.0000 0.64600  0.87000  0.22100  Biso   1.000  O 
  O5       1.0000 0.14600  0.13000  0.27900  Biso   1.000  O 
  O6       1.0000 0.04980  0.64100  0.35700  Biso   1.000  O 
  O7       1.0000 0.64200  0.27100  0.36400  Biso   1.000  O 
  O8       1.0000 0.08510  0.23300  0.50000  Biso   1.000  O 
  O9       1.0000 0.64200  0.27100  0.63600  Biso   1.000  O 
  O10      1.0000 0.04980  0.64100  0.64300  Biso   1.000  O 
  O11      1.0000 0.14600  0.13000  0.72100  Biso   1.000  O 
  O12      1.0000 0.64600  0.87000  0.77900  Biso   1.000  O 
  O13      1.0000 0.55000  0.35900  0.85700  Biso   1.000  O 
  O14      1.0000 0.14200  0.72900  0.86400  Biso   1.000  O 
  Pb1      1.0000 0.97900  0.20100  0.00000  Biso   1.000  Pb
  Pb2      1.0000 0.47900  0.79900  0.50000  Biso   1.000  Pb
