data_image0
_cell_length_a       4.73583
_cell_length_b       4.73582
_cell_length_c       5.26443
_cell_angle_alpha    116.731
_cell_angle_beta     116.731
_cell_angle_gamma    60

_symmetry_space_group_name_H-M    "P 1"
_symmetry_int_tables_number       1

loop_
  _symmetry_equiv_pos_as_xyz
  'x, y, z'

loop_
  _atom_site_label
  _atom_site_occupancy
  _atom_site_fract_x
  _atom_site_fract_y
  _atom_site_fract_z
  _atom_site_thermal_displace_type
  _atom_site_B_iso_or_equiv
  _atom_site_type_symbol
  Mg1      1.0000 0.36000  0.36000  0.07930  Biso   1.000  Mg
  Mg2      1.0000 0.64000  0.64000  0.92100  Biso   1.000  Mg
  O1       1.0000 0.43700  0.79400  0.27700  Biso   1.000  O 
  O2       1.0000 0.04560  0.43700  0.27700  Biso   1.000  O 
  O3       1.0000 0.79400  0.04560  0.27700  Biso   1.000  O 
  O4       1.0000 0.20600  0.95400  0.72300  Biso   1.000  O 
  O5       1.0000 0.95400  0.56300  0.72300  Biso   1.000  O 
  O6       1.0000 0.56300  0.20600  0.72300  Biso   1.000  O 
  Si1      1.0000 0.15800  0.15800  0.47300  Biso   1.000  Si
  Si2      1.0000 0.84200  0.84200  0.52700  Biso   1.000  Si
