data_image0
_cell_length_a       3.88398
_cell_length_b       5.2501
_cell_length_c       6.24961
_cell_angle_alpha    90
_cell_angle_beta     90
_cell_angle_gamma    90

_symmetry_space_group_name_H-M    "P 1"
_symmetry_int_tables_number       1

loop_
  _symmetry_equiv_pos_as_xyz
  'x, y, z'

loop_
  _atom_site_label
  _atom_site_occupancy
  _atom_site_fract_x
  _atom_site_fract_y
  _atom_site_fract_z
  _atom_site_thermal_displace_type
  _atom_site_B_iso_or_equiv
  _atom_site_type_symbol
  Fe1      1.0000 0.00000  0.00000  0.00000  Biso   1.000  Fe
  Fe2      1.0000 0.50000  0.50000  0.50000  Biso   1.000  Fe
  Te1      1.0000 0.50000  0.72700  0.13900  Biso   1.000  Te
  Te2      1.0000 0.00000  0.22700  0.36100  Biso   1.000  Te
  Te3      1.0000 0.00000  0.77300  0.63900  Biso   1.000  Te
  Te4      1.0000 0.50000  0.27300  0.86100  Biso   1.000  Te
