data_image0
_cell_length_a       6.99184
_cell_length_b       6.99184
_cell_length_c       6.99184
_cell_angle_alpha    107.025
_cell_angle_beta     114.483
_cell_angle_gamma    107.025

_symmetry_space_group_name_H-M    "P 1"
_symmetry_int_tables_number       1

loop_
  _symmetry_equiv_pos_as_xyz
  'x, y, z'

loop_
  _atom_site_label
  _atom_site_occupancy
  _atom_site_fract_x
  _atom_site_fract_y
  _atom_site_fract_z
  _atom_site_thermal_displace_type
  _atom_site_B_iso_or_equiv
  _atom_site_type_symbol
  Cl1      1.0000 0.38300  0.31100  0.07250  Biso   1.000  Cl
  Cl2      1.0000 0.76200  0.68900  0.07250  Biso   1.000  Cl
  Cl3      1.0000 0.32300  0.81100  0.13300  Biso   1.000  Cl
  Cl4      1.0000 0.92700  0.31100  0.23800  Biso   1.000  Cl
  Cl5      1.0000 0.32300  0.18900  0.51200  Biso   1.000  Cl
  Cl6      1.0000 0.92700  0.68900  0.61700  Biso   1.000  Cl
  Cl7      1.0000 0.48800  0.81100  0.67700  Biso   1.000  Cl
  Cl8      1.0000 0.86700  0.18900  0.67700  Biso   1.000  Cl
  U1       1.0000 0.00000  0.00000  0.00000  Biso   1.000  U 
  U2       1.0000 0.25000  0.50000  0.75000  Biso   1.000  U 
