data_image0
_cell_length_a       5.42501
_cell_length_b       5.98724
_cell_length_c       7.0214
_cell_angle_alpha    90
_cell_angle_beta     90
_cell_angle_gamma    90

_symmetry_space_group_name_H-M    "P 1"
_symmetry_int_tables_number       1

loop_
  _symmetry_equiv_pos_as_xyz
  'x, y, z'

loop_
  _atom_site_label
  _atom_site_occupancy
  _atom_site_fract_x
  _atom_site_fract_y
  _atom_site_fract_z
  _atom_site_thermal_displace_type
  _atom_site_B_iso_or_equiv
  _atom_site_type_symbol
  As1      1.0000 0.00466  0.82600  0.00000  Biso   1.000  As
  As2      1.0000 0.50500  0.17400  0.50000  Biso   1.000  As
  Na1      1.0000 0.48800  0.16500  0.00000  Biso   1.000  Na
  Na2      1.0000 0.99100  0.32600  0.24400  Biso   1.000  Na
  Na3      1.0000 0.49100  0.67400  0.25600  Biso   1.000  Na
  Na4      1.0000 0.98800  0.83500  0.50000  Biso   1.000  Na
  Na5      1.0000 0.49100  0.67400  0.74400  Biso   1.000  Na
  Na6      1.0000 0.99100  0.32600  0.75600  Biso   1.000  Na
  O1       1.0000 0.90400  0.09820  0.00000  Biso   1.000  O 
  O2       1.0000 0.32000  0.82200  0.00000  Biso   1.000  O 
  O3       1.0000 0.90400  0.69000  0.20200  Biso   1.000  O 
  O4       1.0000 0.40400  0.31000  0.29800  Biso   1.000  O 
  O5       1.0000 0.82000  0.17800  0.50000  Biso   1.000  O 
  O6       1.0000 0.40400  0.90200  0.50000  Biso   1.000  O 
  O7       1.0000 0.40400  0.31000  0.70200  Biso   1.000  O 
  O8       1.0000 0.90400  0.69000  0.79800  Biso   1.000  O 
