data_image0
_cell_length_a       6.91815
_cell_length_b       6.91815
_cell_length_c       11.2089
_cell_angle_alpha    114.052
_cell_angle_beta     114.052
_cell_angle_gamma    48.3278

_symmetry_space_group_name_H-M    "P 1"
_symmetry_int_tables_number       1

loop_
  _symmetry_equiv_pos_as_xyz
  'x, y, z'

loop_
  _atom_site_label
  _atom_site_occupancy
  _atom_site_fract_x
  _atom_site_fract_y
  _atom_site_fract_z
  _atom_site_thermal_displace_type
  _atom_site_B_iso_or_equiv
  _atom_site_type_symbol
  Br1      1.0000 0.37800  0.37400  0.06430  Biso   1.000  Br
  Br2      1.0000 0.10800  0.14100  0.19100  Biso   1.000  Br
  Br3      1.0000 0.85900  0.89200  0.30900  Biso   1.000  Br
  Br4      1.0000 0.62600  0.62200  0.43600  Biso   1.000  Br
  Br5      1.0000 0.37400  0.37800  0.56400  Biso   1.000  Br
  Br6      1.0000 0.14100  0.10800  0.69100  Biso   1.000  Br
  Br7      1.0000 0.89200  0.85900  0.80900  Biso   1.000  Br
  Br8      1.0000 0.62200  0.62600  0.93600  Biso   1.000  Br
  W1       1.0000 0.74200  0.25800  0.25000  Biso   1.000  W 
  W2       1.0000 0.25800  0.74200  0.75000  Biso   1.000  W 
