data_image0
_cell_length_a       12.1899
_cell_length_b       4.88804
_cell_length_c       8.2386
_cell_angle_alpha    90.4692
_cell_angle_beta     111.242
_cell_angle_gamma    89.7112

_symmetry_space_group_name_H-M    "P 1"
_symmetry_int_tables_number       1

loop_
  _symmetry_equiv_pos_as_xyz
  'x, y, z'

loop_
  _atom_site_label
  _atom_site_occupancy
  _atom_site_fract_x
  _atom_site_fract_y
  _atom_site_fract_z
  _atom_site_thermal_displace_type
  _atom_site_B_iso_or_equiv
  _atom_site_type_symbol
  K1       1.0000 0.65100  0.73600  0.06930  Biso   1.000  K 
  K2       1.0000 0.14300  0.76200  0.08230  Biso   1.000  K 
  K3       1.0000 0.85700  0.23800  0.91800  Biso   1.000  K 
  K4       1.0000 0.34900  0.26400  0.93100  Biso   1.000  K 
  O1       1.0000 0.90400  0.75200  0.06180  Biso   1.000  O 
  O2       1.0000 0.36800  0.77300  0.06390  Biso   1.000  O 
  O3       1.0000 0.49100  0.39200  0.28400  Biso   1.000  O 
  O4       1.0000 0.91300  0.38100  0.30000  Biso   1.000  O 
  O5       1.0000 0.56900  0.88900  0.34200  Biso   1.000  O 
  O6       1.0000 0.85700  0.88000  0.35300  Biso   1.000  O 
  O7       1.0000 0.71700  0.29200  0.36100  Biso   1.000  O 
  O8       1.0000 0.07810  0.76400  0.37900  Biso   1.000  O 
  O9       1.0000 0.36900  0.75900  0.39000  Biso   1.000  O 
  O10      1.0000 0.63100  0.24100  0.61000  Biso   1.000  O 
  O11      1.0000 0.92200  0.23600  0.62100  Biso   1.000  O 
  O12      1.0000 0.28300  0.70800  0.63900  Biso   1.000  O 
  O13      1.0000 0.14300  0.12000  0.64700  Biso   1.000  O 
  O14      1.0000 0.43100  0.11100  0.65800  Biso   1.000  O 
  O15      1.0000 0.08700  0.61900  0.70000  Biso   1.000  O 
  O16      1.0000 0.50900  0.60800  0.71600  Biso   1.000  O 
  O17      1.0000 0.63200  0.22700  0.93600  Biso   1.000  O 
  O18      1.0000 0.09560  0.24800  0.93800  Biso   1.000  O 
  Si1      1.0000 0.44400  0.71400  0.25900  Biso   1.000  Si
  Si2      1.0000 0.93700  0.70300  0.26200  Biso   1.000  Si
  Si3      1.0000 0.60100  0.20600  0.40200  Biso   1.000  Si
  Si4      1.0000 0.85400  0.19900  0.41100  Biso   1.000  Si
  Si5      1.0000 0.14600  0.80100  0.58900  Biso   1.000  Si
  Si6      1.0000 0.39900  0.79400  0.59800  Biso   1.000  Si
  Si7      1.0000 0.06260  0.29700  0.73800  Biso   1.000  Si
  Si8      1.0000 0.55600  0.28600  0.74100  Biso   1.000  Si
