data_image0
_cell_length_a       4.43971
_cell_length_b       4.43971
_cell_length_c       4.43971
_cell_angle_alpha    90
_cell_angle_beta     90
_cell_angle_gamma    90

_symmetry_space_group_name_H-M    "P 1"
_symmetry_int_tables_number       1

loop_
  _symmetry_equiv_pos_as_xyz
  'x, y, z'

loop_
  _atom_site_label
  _atom_site_occupancy
  _atom_site_fract_x
  _atom_site_fract_y
  _atom_site_fract_z
  _atom_site_thermal_displace_type
  _atom_site_B_iso_or_equiv
  _atom_site_type_symbol
  Fe1      1.0000 0.13700  0.13700  0.13700  Biso   1.000  Fe
  Fe2      1.0000 0.86300  0.63700  0.36300  Biso   1.000  Fe
  Fe3      1.0000 0.36300  0.86300  0.63700  Biso   1.000  Fe
  Fe4      1.0000 0.63700  0.36300  0.86300  Biso   1.000  Fe
  Si1      1.0000 0.34100  0.65900  0.15900  Biso   1.000  Si
  Si2      1.0000 0.65900  0.15900  0.34100  Biso   1.000  Si
  Si3      1.0000 0.15900  0.34100  0.65900  Biso   1.000  Si
  Si4      1.0000 0.84100  0.84100  0.84100  Biso   1.000  Si
