data_image0
_cell_length_a       3.51809
_cell_length_b       4.92942
_cell_length_c       6.63085
_cell_angle_alpha    111.692
_cell_angle_beta     90
_cell_angle_gamma    110.907

_symmetry_space_group_name_H-M    "P 1"
_symmetry_int_tables_number       1

loop_
  _symmetry_equiv_pos_as_xyz
  'x, y, z'

loop_
  _atom_site_label
  _atom_site_occupancy
  _atom_site_fract_x
  _atom_site_fract_y
  _atom_site_fract_z
  _atom_site_thermal_displace_type
  _atom_site_B_iso_or_equiv
  _atom_site_type_symbol
  Mg1      1.0000 0.00000  0.00000  0.00000  Biso   1.000  Mg
  O1       1.0000 0.65300  0.30600  0.10800  Biso   1.000  O 
  O2       1.0000 0.97200  0.94300  0.28400  Biso   1.000  O 
  O3       1.0000 0.30800  0.61700  0.43600  Biso   1.000  O 
  O4       1.0000 0.69200  0.38300  0.56400  Biso   1.000  O 
  O5       1.0000 0.02840  0.05680  0.71600  Biso   1.000  O 
  O6       1.0000 0.34700  0.69400  0.89200  Biso   1.000  O 
  V1       1.0000 0.81200  0.62400  0.35100  Biso   1.000  V 
  V2       1.0000 0.18800  0.37600  0.64900  Biso   1.000  V 
