data_image0
_cell_length_a       4.76556
_cell_length_b       4.76556
_cell_length_c       6.51371
_cell_angle_alpha    90
_cell_angle_beta     90
_cell_angle_gamma    113.186

_symmetry_space_group_name_H-M    "P 1"
_symmetry_int_tables_number       1

loop_
  _symmetry_equiv_pos_as_xyz
  'x, y, z'

loop_
  _atom_site_label
  _atom_site_occupancy
  _atom_site_fract_x
  _atom_site_fract_y
  _atom_site_fract_z
  _atom_site_thermal_displace_type
  _atom_site_B_iso_or_equiv
  _atom_site_type_symbol
  Fe1      1.0000 0.00000  0.00000  0.00000  Biso   1.000  Fe
  Fe2      1.0000 0.00000  0.00000  0.50000  Biso   1.000  Fe
  O1       1.0000 0.25100  0.74900  0.06080  Biso   1.000  O 
  O2       1.0000 0.22700  0.30600  0.25000  Biso   1.000  O 
  O3       1.0000 0.69400  0.77300  0.25000  Biso   1.000  O 
  O4       1.0000 0.25100  0.74900  0.43900  Biso   1.000  O 
  O5       1.0000 0.74900  0.25100  0.56100  Biso   1.000  O 
  O6       1.0000 0.30600  0.22700  0.75000  Biso   1.000  O 
  O7       1.0000 0.77300  0.69400  0.75000  Biso   1.000  O 
  O8       1.0000 0.74900  0.25100  0.93900  Biso   1.000  O 
  S1       1.0000 0.35100  0.64900  0.25000  Biso   1.000  S 
  S2       1.0000 0.64900  0.35100  0.75000  Biso   1.000  S 
