data_image0
_cell_length_a       5.78529
_cell_length_b       5.7853
_cell_length_c       7.82402
_cell_angle_alpha    90
_cell_angle_beta     90
_cell_angle_gamma    120

_symmetry_space_group_name_H-M    "P 1"
_symmetry_int_tables_number       1

loop_
  _symmetry_equiv_pos_as_xyz
  'x, y, z'

loop_
  _atom_site_label
  _atom_site_occupancy
  _atom_site_fract_x
  _atom_site_fract_y
  _atom_site_fract_z
  _atom_site_thermal_displace_type
  _atom_site_B_iso_or_equiv
  _atom_site_type_symbol
  Cs1      1.0000 0.30400  0.30400  0.00000  Biso   1.000  Cs
  Cs2      1.0000 0.69600  0.00000  0.33300  Biso   1.000  Cs
  Cs3      1.0000 0.00000  0.69600  0.66700  Biso   1.000  Cs
  N1       1.0000 0.00000  0.69100  0.16700  Biso   1.000  N 
  N2       1.0000 0.30900  0.30900  0.50000  Biso   1.000  N 
  N3       1.0000 0.69100  0.00000  0.83300  Biso   1.000  N 
  O1       1.0000 0.89500  0.52000  0.04730  Biso   1.000  O 
  O2       1.0000 0.10500  0.62500  0.28600  Biso   1.000  O 
  O3       1.0000 0.48000  0.37500  0.38100  Biso   1.000  O 
  O4       1.0000 0.37500  0.48000  0.61900  Biso   1.000  O 
  O5       1.0000 0.62500  0.10500  0.71400  Biso   1.000  O 
  O6       1.0000 0.52000  0.89500  0.95300  Biso   1.000  O 
