data_image0
_cell_length_a       6.8749
_cell_length_b       6.87463
_cell_length_c       8.92922
_cell_angle_alpha    68.2169
_cell_angle_beta     111.783
_cell_angle_gamma    118.707

_symmetry_space_group_name_H-M    "P 1"
_symmetry_int_tables_number       1

loop_
  _symmetry_equiv_pos_as_xyz
  'x, y, z'

loop_
  _atom_site_label
  _atom_site_occupancy
  _atom_site_fract_x
  _atom_site_fract_y
  _atom_site_fract_z
  _atom_site_thermal_displace_type
  _atom_site_B_iso_or_equiv
  _atom_site_type_symbol
  Ca1      1.0000 0.01230  0.46800  0.98100  Biso   1.000  Ca
  Ca2      1.0000 0.53200  0.98800  0.98100  Biso   1.000  Ca
  Ca3      1.0000 0.24000  0.29200  0.70500  Biso   1.000  Ca
  Ca4      1.0000 0.70800  0.76000  0.70500  Biso   1.000  Ca
  Ca5      1.0000 0.75900  0.74300  0.34900  Biso   1.000  Ca
  Ca6      1.0000 0.25700  0.24100  0.34900  Biso   1.000  Ca
  Ca7      1.0000 0.55500  0.44500  0.05290  Biso   1.000  Ca
  Ca8      1.0000 0.68000  0.32000  0.64400  Biso   1.000  Ca
  Ca9      1.0000 0.26600  0.73400  0.28300  Biso   1.000  Ca
  O1       1.0000 0.98300  0.39500  0.25200  Biso   1.000  O 
  O2       1.0000 0.87900  0.12100  0.81300  Biso   1.000  O 
  O3       1.0000 0.60500  0.01650  0.25200  Biso   1.000  O 
  O4       1.0000 0.65900  0.34100  0.37300  Biso   1.000  O 
  O5       1.0000 0.89600  0.73100  0.00247  Biso   1.000  O 
  O6       1.0000 0.39400  0.60600  0.13100  Biso   1.000  O 
  O7       1.0000 0.26900  0.10400  0.00246  Biso   1.000  O 
  O8       1.0000 0.63500  0.36500  0.86500  Biso   1.000  O 
  O9       1.0000 0.94800  0.05220  0.13500  Biso   1.000  O 
  O10      1.0000 0.16900  0.83100  0.44800  Biso   1.000  O 
  O11      1.0000 0.35000  0.03590  0.69100  Biso   1.000  O 
  O12      1.0000 0.36400  0.63600  0.77200  Biso   1.000  O 
  O13      1.0000 0.96400  0.65000  0.69100  Biso   1.000  O 
  O14      1.0000 0.46300  0.53700  0.49900  Biso   1.000  O 
  O15      1.0000 0.92200  0.07830  0.52600  Biso   1.000  O 
  Si1      1.0000 0.79300  0.20700  0.35600  Biso   1.000  Si
  Si2      1.0000 0.21300  0.78700  0.64900  Biso   1.000  Si
  Si3      1.0000 0.00000  0.00004  0.99300  Biso   1.000  Si
