data_image0
_cell_length_a       3.61339
_cell_length_b       4.02301
_cell_length_c       4.02301
_cell_angle_alpha    96.9064
_cell_angle_beta     63.3146
_cell_angle_gamma    116.685

_symmetry_space_group_name_H-M    "P 1"
_symmetry_int_tables_number       1

loop_
  _symmetry_equiv_pos_as_xyz
  'x, y, z'

loop_
  _atom_site_label
  _atom_site_occupancy
  _atom_site_fract_x
  _atom_site_fract_y
  _atom_site_fract_z
  _atom_site_thermal_displace_type
  _atom_site_B_iso_or_equiv
  _atom_site_type_symbol
  C1       1.0000 0.63100  0.63100  0.36900  Biso   1.000  C 
  C2       1.0000 0.36900  0.36900  0.63100  Biso   1.000  C 
  Li1      1.0000 0.00000  0.23900  0.23900  Biso   1.000  Li
  Li2      1.0000 0.00000  0.76100  0.76100  Biso   1.000  Li
