data_image0
_cell_length_a       7.15476
_cell_length_b       7.15476
_cell_length_c       13.0694
_cell_angle_alpha    90
_cell_angle_beta     90
_cell_angle_gamma    90

_symmetry_space_group_name_H-M    "P 1"
_symmetry_int_tables_number       1

loop_
  _symmetry_equiv_pos_as_xyz
  'x, y, z'

loop_
  _atom_site_label
  _atom_site_occupancy
  _atom_site_fract_x
  _atom_site_fract_y
  _atom_site_fract_z
  _atom_site_thermal_displace_type
  _atom_site_B_iso_or_equiv
  _atom_site_type_symbol
  Si1      1.0000 0.19900  0.55000  0.06210  Biso   1.000  Si
  Si2      1.0000 0.79500  0.14700  0.07270  Biso   1.000  Si
  Si3      1.0000 0.70500  0.64700  0.17700  Biso   1.000  Si
  Si4      1.0000 0.30100  0.05020  0.18800  Biso   1.000  Si
  Si5      1.0000 0.95000  0.69900  0.31200  Biso   1.000  Si
  Si6      1.0000 0.35300  0.29500  0.32300  Biso   1.000  Si
  Si7      1.0000 0.85300  0.20500  0.42700  Biso   1.000  Si
  Si8      1.0000 0.45000  0.80100  0.43800  Biso   1.000  Si
  Si9      1.0000 0.80100  0.45000  0.56200  Biso   1.000  Si
  Si10     1.0000 0.20500  0.85300  0.57300  Biso   1.000  Si
  Si11     1.0000 0.29500  0.35300  0.67700  Biso   1.000  Si
  Si12     1.0000 0.69900  0.95000  0.68800  Biso   1.000  Si
  Si13     1.0000 0.05020  0.30100  0.81200  Biso   1.000  Si
  Si14     1.0000 0.64700  0.70500  0.82300  Biso   1.000  Si
  Si15     1.0000 0.14700  0.79500  0.92700  Biso   1.000  Si
  Si16     1.0000 0.55000  0.19900  0.93800  Biso   1.000  Si
  Zr1      1.0000 0.17500  0.17500  0.00000  Biso   1.000  Zr
  Zr2      1.0000 0.50100  0.85000  0.03510  Biso   1.000  Zr
  Zr3      1.0000 0.00109  0.85400  0.12300  Biso   1.000  Zr
  Zr4      1.0000 0.49900  0.35400  0.12700  Biso   1.000  Zr
  Zr5      1.0000 0.99900  0.35000  0.21500  Biso   1.000  Zr
  Zr6      1.0000 0.32500  0.67500  0.25000  Biso   1.000  Zr
  Zr7      1.0000 0.65000  0.00123  0.28500  Biso   1.000  Zr
  Zr8      1.0000 0.64600  0.50100  0.37300  Biso   1.000  Zr
  Zr9      1.0000 0.14600  0.99900  0.37700  Biso   1.000  Zr
  Zr10     1.0000 0.15000  0.49900  0.46500  Biso   1.000  Zr
  Zr11     1.0000 0.82500  0.82500  0.50000  Biso   1.000  Zr
  Zr12     1.0000 0.49900  0.15000  0.53500  Biso   1.000  Zr
  Zr13     1.0000 0.99900  0.14600  0.62300  Biso   1.000  Zr
  Zr14     1.0000 0.50100  0.64600  0.62700  Biso   1.000  Zr
  Zr15     1.0000 0.00123  0.65000  0.71500  Biso   1.000  Zr
  Zr16     1.0000 0.67500  0.32500  0.75000  Biso   1.000  Zr
  Zr17     1.0000 0.35000  0.99900  0.78500  Biso   1.000  Zr
  Zr18     1.0000 0.35400  0.49900  0.87300  Biso   1.000  Zr
  Zr19     1.0000 0.85400  0.00109  0.87700  Biso   1.000  Zr
  Zr20     1.0000 0.85000  0.50100  0.96500  Biso   1.000  Zr
