data_image0
_cell_length_a       10.2373
_cell_length_b       10.2366
_cell_length_c       6.45086
_cell_angle_alpha    90
_cell_angle_beta     90
_cell_angle_gamma    120.002

_symmetry_space_group_name_H-M    "P 1"
_symmetry_int_tables_number       1

loop_
  _symmetry_equiv_pos_as_xyz
  'x, y, z'

loop_
  _atom_site_label
  _atom_site_occupancy
  _atom_site_fract_x
  _atom_site_fract_y
  _atom_site_fract_z
  _atom_site_thermal_displace_type
  _atom_site_B_iso_or_equiv
  _atom_site_type_symbol
  Ce1      1.0000 0.33300  0.66700  0.01440  Biso   1.000  Ce
  Ce2      1.0000 0.54100  0.08210  0.04900  Biso   1.000  Ce
  Ce3      1.0000 0.54100  0.45900  0.04900  Biso   1.000  Ce
  Ce4      1.0000 0.91800  0.45900  0.04900  Biso   1.000  Ce
  Ce5      1.0000 0.12500  0.25100  0.24000  Biso   1.000  Ce
  Ce6      1.0000 0.12500  0.87500  0.24000  Biso   1.000  Ce
  Ce7      1.0000 0.74900  0.87500  0.24000  Biso   1.000  Ce
  Ce8      1.0000 0.66700  0.33300  0.51400  Biso   1.000  Ce
  Ce9      1.0000 0.45900  0.91800  0.54900  Biso   1.000  Ce
  Ce10     1.0000 0.08210  0.54100  0.54900  Biso   1.000  Ce
  Ce11     1.0000 0.45900  0.54100  0.54900  Biso   1.000  Ce
  Ce12     1.0000 0.87500  0.74900  0.74000  Biso   1.000  Ce
  Ce13     1.0000 0.25100  0.12500  0.74000  Biso   1.000  Ce
  Ce14     1.0000 0.87500  0.12500  0.74000  Biso   1.000  Ce
  Ru1      1.0000 0.81500  0.62900  0.29900  Biso   1.000  Ru
  Ru2      1.0000 0.37100  0.18500  0.29900  Biso   1.000  Ru
  Ru3      1.0000 0.81500  0.18500  0.29900  Biso   1.000  Ru
  Ru4      1.0000 0.18500  0.37100  0.79900  Biso   1.000  Ru
  Ru5      1.0000 0.18500  0.81500  0.79900  Biso   1.000  Ru
  Ru6      1.0000 0.62900  0.81500  0.79900  Biso   1.000  Ru
