data_image0
_cell_length_a       8.73836
_cell_length_b       5.41603
_cell_length_c       10.4876
_cell_angle_alpha    90
_cell_angle_beta     90
_cell_angle_gamma    90

_symmetry_space_group_name_H-M    "P 1"
_symmetry_int_tables_number       1

loop_
  _symmetry_equiv_pos_as_xyz
  'x, y, z'

loop_
  _atom_site_label
  _atom_site_occupancy
  _atom_site_fract_x
  _atom_site_fract_y
  _atom_site_fract_z
  _atom_site_thermal_displace_type
  _atom_site_B_iso_or_equiv
  _atom_site_type_symbol
  Cs1      1.0000 0.35600  0.75000  0.07510  Biso   1.000  Cs
  Cs2      1.0000 0.02180  0.25000  0.16800  Biso   1.000  Cs
  Cs3      1.0000 0.52200  0.25000  0.33200  Biso   1.000  Cs
  Cs4      1.0000 0.85600  0.75000  0.42500  Biso   1.000  Cs
  Cs5      1.0000 0.14400  0.25000  0.57500  Biso   1.000  Cs
  Cs6      1.0000 0.47800  0.75000  0.66800  Biso   1.000  Cs
  Cs7      1.0000 0.97800  0.75000  0.83200  Biso   1.000  Cs
  Cs8      1.0000 0.64400  0.25000  0.92500  Biso   1.000  Cs
  S1       1.0000 0.75500  0.75000  0.10900  Biso   1.000  S 
  S2       1.0000 0.25500  0.75000  0.39100  Biso   1.000  S 
  S3       1.0000 0.74500  0.25000  0.60900  Biso   1.000  S 
  S4       1.0000 0.24500  0.25000  0.89100  Biso   1.000  S 
