data_image0
_cell_length_a       5.21298
_cell_length_b       6.31213
_cell_length_c       6.31213
_cell_angle_alpha    97.0157
_cell_angle_beta     104.929
_cell_angle_gamma    75.071

_symmetry_space_group_name_H-M    "P 1"
_symmetry_int_tables_number       1

loop_
  _symmetry_equiv_pos_as_xyz
  'x, y, z'

loop_
  _atom_site_label
  _atom_site_occupancy
  _atom_site_fract_x
  _atom_site_fract_y
  _atom_site_fract_z
  _atom_site_thermal_displace_type
  _atom_site_B_iso_or_equiv
  _atom_site_type_symbol
  Al1      1.0000 0.75000  0.09130  0.09130  Biso   1.000  Al
  Al2      1.0000 0.25000  0.90900  0.90900  Biso   1.000  Al
  Li1      1.0000 0.25000  0.27600  0.27600  Biso   1.000  Li
  Li2      1.0000 0.75000  0.72400  0.72400  Biso   1.000  Li
  O1       1.0000 0.64200  0.80700  0.02420  Biso   1.000  O 
  O2       1.0000 0.80100  0.36600  0.09300  Biso   1.000  O 
  O3       1.0000 0.14200  0.97600  0.19300  Biso   1.000  O 
  O4       1.0000 0.06190  0.62600  0.34500  Biso   1.000  O 
  O5       1.0000 0.69900  0.09300  0.36600  Biso   1.000  O 
  O6       1.0000 0.56200  0.65500  0.37400  Biso   1.000  O 
  O7       1.0000 0.43800  0.34500  0.62600  Biso   1.000  O 
  O8       1.0000 0.30100  0.90700  0.63400  Biso   1.000  O 
  O9       1.0000 0.93800  0.37400  0.65500  Biso   1.000  O 
  O10      1.0000 0.85800  0.02420  0.80700  Biso   1.000  O 
  O11      1.0000 0.19900  0.63400  0.90700  Biso   1.000  O 
  O12      1.0000 0.35800  0.19300  0.97600  Biso   1.000  O 
  Si1      1.0000 0.75700  0.61100  0.20000  Biso   1.000  Si
  Si2      1.0000 0.25700  0.80000  0.38900  Biso   1.000  Si
  Si3      1.0000 0.74300  0.20000  0.61100  Biso   1.000  Si
  Si4      1.0000 0.24300  0.38900  0.80000  Biso   1.000  Si
