data_image0
_cell_length_a       6.52311
_cell_length_b       3.64326
_cell_length_c       5.00127
_cell_angle_alpha    90
_cell_angle_beta     90
_cell_angle_gamma    90

_symmetry_space_group_name_H-M    "P 1"
_symmetry_int_tables_number       1

loop_
  _symmetry_equiv_pos_as_xyz
  'x, y, z'

loop_
  _atom_site_label
  _atom_site_occupancy
  _atom_site_fract_x
  _atom_site_fract_y
  _atom_site_fract_z
  _atom_site_thermal_displace_type
  _atom_site_B_iso_or_equiv
  _atom_site_type_symbol
  Si1      1.0000 0.45600  0.75000  0.14600  Biso   1.000  Si
  Si2      1.0000 0.95600  0.75000  0.35400  Biso   1.000  Si
  Si3      1.0000 0.04430  0.25000  0.64600  Biso   1.000  Si
  Si4      1.0000 0.54400  0.25000  0.85400  Biso   1.000  Si
  Ti1      1.0000 0.17600  0.25000  0.12900  Biso   1.000  Ti
  Ti2      1.0000 0.67600  0.25000  0.37100  Biso   1.000  Ti
  Ti3      1.0000 0.32400  0.75000  0.62900  Biso   1.000  Ti
  Ti4      1.0000 0.82400  0.75000  0.87100  Biso   1.000  Ti
