data_image0
_cell_length_a       9.03057
_cell_length_b       6.26938
_cell_length_c       4.73958
_cell_angle_alpha    90
_cell_angle_beta     90
_cell_angle_gamma    90

_symmetry_space_group_name_H-M    "P 1"
_symmetry_int_tables_number       1

loop_
  _symmetry_equiv_pos_as_xyz
  'x, y, z'

loop_
  _atom_site_label
  _atom_site_occupancy
  _atom_site_fract_x
  _atom_site_fract_y
  _atom_site_fract_z
  _atom_site_thermal_displace_type
  _atom_site_B_iso_or_equiv
  _atom_site_type_symbol
  As1      1.0000 0.68200  0.25000  0.02180  Biso   1.000  As
  As2      1.0000 0.18200  0.25000  0.47800  Biso   1.000  As
  As3      1.0000 0.81800  0.75000  0.52200  Biso   1.000  As
  As4      1.0000 0.31800  0.75000  0.97800  Biso   1.000  As
  Cr1      1.0000 0.00000  0.00000  0.00000  Biso   1.000  Cr
  Cr2      1.0000 0.00000  0.50000  0.00000  Biso   1.000  Cr
  Cr3      1.0000 0.50000  0.00000  0.50000  Biso   1.000  Cr
  Cr4      1.0000 0.50000  0.50000  0.50000  Biso   1.000  Cr
  O1       1.0000 0.87300  0.25000  0.10100  Biso   1.000  O 
  O2       1.0000 0.62700  0.01680  0.16800  Biso   1.000  O 
  O3       1.0000 0.62700  0.48300  0.16800  Biso   1.000  O 
  O4       1.0000 0.88300  0.75000  0.17400  Biso   1.000  O 
  O5       1.0000 0.38300  0.75000  0.32600  Biso   1.000  O 
  O6       1.0000 0.12700  0.01680  0.33200  Biso   1.000  O 
  O7       1.0000 0.12700  0.48300  0.33200  Biso   1.000  O 
  O8       1.0000 0.37300  0.25000  0.39900  Biso   1.000  O 
  O9       1.0000 0.62700  0.75000  0.60100  Biso   1.000  O 
  O10      1.0000 0.87300  0.51700  0.66800  Biso   1.000  O 
  O11      1.0000 0.87300  0.98300  0.66800  Biso   1.000  O 
  O12      1.0000 0.61700  0.25000  0.67400  Biso   1.000  O 
  O13      1.0000 0.11700  0.25000  0.82600  Biso   1.000  O 
  O14      1.0000 0.37300  0.51700  0.83200  Biso   1.000  O 
  O15      1.0000 0.37300  0.98300  0.83200  Biso   1.000  O 
  O16      1.0000 0.12700  0.75000  0.89900  Biso   1.000  O 
