data_image0
_cell_length_a       12.796
_cell_length_b       18.5654
_cell_length_c       6.04176
_cell_angle_alpha    90
_cell_angle_beta     90
_cell_angle_gamma    90

_symmetry_space_group_name_H-M    "P 1"
_symmetry_int_tables_number       1

loop_
  _symmetry_equiv_pos_as_xyz
  'x, y, z'

loop_
  _atom_site_label
  _atom_site_occupancy
  _atom_site_fract_x
  _atom_site_fract_y
  _atom_site_fract_z
  _atom_site_thermal_displace_type
  _atom_site_B_iso_or_equiv
  _atom_site_type_symbol
  Br1      1.0000 0.71100  0.44500  0.24700  Biso   1.000  Br
  Br2      1.0000 0.78900  0.55500  0.74700  Biso   1.000  Br
  Br3      1.0000 0.21100  0.05490  0.25300  Biso   1.000  Br
  Br4      1.0000 0.28900  0.94500  0.75300  Biso   1.000  Br
  Br5      1.0000 0.28900  0.55500  0.75300  Biso   1.000  Br
  Br6      1.0000 0.21100  0.44500  0.25300  Biso   1.000  Br
  Br7      1.0000 0.78900  0.94500  0.74700  Biso   1.000  Br
  Br8      1.0000 0.71100  0.05490  0.24700  Biso   1.000  Br
  Br9      1.0000 0.21800  0.65100  0.25900  Biso   1.000  Br
  Br10     1.0000 0.28200  0.34900  0.75900  Biso   1.000  Br
  Br11     1.0000 0.71800  0.84900  0.24100  Biso   1.000  Br
  Br12     1.0000 0.78200  0.15100  0.74100  Biso   1.000  Br
  Br13     1.0000 0.78200  0.34900  0.74100  Biso   1.000  Br
  Br14     1.0000 0.71800  0.65100  0.24100  Biso   1.000  Br
  Br15     1.0000 0.28200  0.15100  0.75900  Biso   1.000  Br
  Br16     1.0000 0.21800  0.84900  0.25900  Biso   1.000  Br
  Br17     1.0000 0.96800  0.34900  0.24100  Biso   1.000  Br
  Br18     1.0000 0.53200  0.65100  0.74100  Biso   1.000  Br
  Br19     1.0000 0.46800  0.15100  0.25900  Biso   1.000  Br
  Br20     1.0000 0.03220  0.84900  0.75900  Biso   1.000  Br
  Br21     1.0000 0.03220  0.65100  0.75900  Biso   1.000  Br
  Br22     1.0000 0.46800  0.34900  0.25900  Biso   1.000  Br
  Br23     1.0000 0.53200  0.84900  0.74100  Biso   1.000  Br
  Br24     1.0000 0.96800  0.15100  0.24100  Biso   1.000  Br
  Br25     1.0000 0.04440  0.25000  0.76500  Biso   1.000  Br
  Br26     1.0000 0.45600  0.75000  0.26500  Biso   1.000  Br
  Br27     1.0000 0.54400  0.25000  0.73500  Biso   1.000  Br
  Br28     1.0000 0.95600  0.75000  0.23500  Biso   1.000  Br
  Br29     1.0000 0.20600  0.25000  0.23500  Biso   1.000  Br
  Br30     1.0000 0.29400  0.75000  0.73500  Biso   1.000  Br
  Br31     1.0000 0.70600  0.25000  0.26500  Biso   1.000  Br
  Br32     1.0000 0.79400  0.75000  0.76500  Biso   1.000  Br
  Br33     1.0000 0.03900  0.44500  0.74700  Biso   1.000  Br
  Br34     1.0000 0.46100  0.55500  0.24700  Biso   1.000  Br
  Br35     1.0000 0.53900  0.05490  0.75300  Biso   1.000  Br
  Br36     1.0000 0.96100  0.94500  0.25300  Biso   1.000  Br
  Br37     1.0000 0.96100  0.55500  0.25300  Biso   1.000  Br
  Br38     1.0000 0.53900  0.44500  0.75300  Biso   1.000  Br
  Br39     1.0000 0.46100  0.94500  0.24700  Biso   1.000  Br
  Br40     1.0000 0.03900  0.05490  0.74700  Biso   1.000  Br
  Nb1      1.0000 0.12500  0.36200  0.00000  Biso   1.000  Nb
  Nb2      1.0000 0.37500  0.63800  0.50000  Biso   1.000  Nb
  Nb3      1.0000 0.62500  0.13800  0.50000  Biso   1.000  Nb
  Nb4      1.0000 0.87500  0.86200  0.00019  Biso   1.000  Nb
  Nb5      1.0000 0.87500  0.63800  0.00019  Biso   1.000  Nb
  Nb6      1.0000 0.62500  0.36200  0.50000  Biso   1.000  Nb
  Nb7      1.0000 0.37500  0.86200  0.50000  Biso   1.000  Nb
  Nb8      1.0000 0.12500  0.13800  0.00000  Biso   1.000  Nb
