data_image0
_cell_length_a       6.85323
_cell_length_b       6.92976
_cell_length_c       7.10259
_cell_angle_alpha    108.275
_cell_angle_beta     61.1548
_cell_angle_gamma    119.635

_symmetry_space_group_name_H-M    "P 1"
_symmetry_int_tables_number       1

loop_
  _symmetry_equiv_pos_as_xyz
  'x, y, z'

loop_
  _atom_site_label
  _atom_site_occupancy
  _atom_site_fract_x
  _atom_site_fract_y
  _atom_site_fract_z
  _atom_site_thermal_displace_type
  _atom_site_B_iso_or_equiv
  _atom_site_type_symbol
  Cl1      1.0000 0.31600  0.79100  0.15800  Biso   1.000  Cl
  Cl2      1.0000 0.78900  0.76100  0.18300  Biso   1.000  Cl
  Cl3      1.0000 0.21900  0.25600  0.30300  Biso   1.000  Cl
  Cl4      1.0000 0.73400  0.25600  0.30300  Biso   1.000  Cl
  Cl5      1.0000 0.26600  0.74400  0.69700  Biso   1.000  Cl
  Cl6      1.0000 0.78100  0.74400  0.69700  Biso   1.000  Cl
  Cl7      1.0000 0.21100  0.23900  0.81700  Biso   1.000  Cl
  Cl8      1.0000 0.68400  0.20900  0.84200  Biso   1.000  Cl
  Nb1      1.0000 0.22000  0.00000  0.00000  Biso   1.000  Nb
  Nb2      1.0000 0.78000  0.00000  0.00000  Biso   1.000  Nb
