data_image0
_cell_length_a       3.49225
_cell_length_b       4.07277
_cell_length_c       6.40352
_cell_angle_alpha    96.2083
_cell_angle_beta     105.824
_cell_angle_gamma    64.6129

_symmetry_space_group_name_H-M    "P 1"
_symmetry_int_tables_number       1

loop_
  _symmetry_equiv_pos_as_xyz
  'x, y, z'

loop_
  _atom_site_label
  _atom_site_occupancy
  _atom_site_fract_x
  _atom_site_fract_y
  _atom_site_fract_z
  _atom_site_thermal_displace_type
  _atom_site_B_iso_or_equiv
  _atom_site_type_symbol
  Br1      1.0000 0.73000  0.78000  0.24100  Biso   1.000  Br
  Br2      1.0000 0.27000  0.22000  0.75900  Biso   1.000  Br
  Cu1      1.0000 0.00000  0.00000  0.00000  Biso   1.000  Cu
