data_image0
_cell_length_a       4.36625
_cell_length_b       6.67852
_cell_length_c       6.67852
_cell_angle_alpha    96.1341
_cell_angle_beta     109.08
_cell_angle_gamma    70.92

_symmetry_space_group_name_H-M    "P 1"
_symmetry_int_tables_number       1

loop_
  _symmetry_equiv_pos_as_xyz
  'x, y, z'

loop_
  _atom_site_label
  _atom_site_occupancy
  _atom_site_fract_x
  _atom_site_fract_y
  _atom_site_fract_z
  _atom_site_thermal_displace_type
  _atom_site_B_iso_or_equiv
  _atom_site_type_symbol
  Ni1      1.0000 0.66400  0.18900  0.03500  Biso   1.000  Ni
  Ni2      1.0000 0.08560  0.38900  0.05200  Biso   1.000  Ni
  Ni3      1.0000 0.37100  0.96500  0.18900  Biso   1.000  Ni
  Ni4      1.0000 0.84100  0.60200  0.33300  Biso   1.000  Ni
  Ni5      1.0000 0.96600  0.94800  0.38900  Biso   1.000  Ni
  Ni6      1.0000 0.55600  0.33300  0.39800  Biso   1.000  Ni
  Ni7      1.0000 0.49200  0.66700  0.60200  Biso   1.000  Ni
  Ni8      1.0000 0.52600  0.05200  0.61100  Biso   1.000  Ni
  Ni9      1.0000 0.11100  0.39800  0.66700  Biso   1.000  Ni
  Ni10     1.0000 0.14700  0.03500  0.81100  Biso   1.000  Ni
  Ni11     1.0000 0.42200  0.61100  0.94800  Biso   1.000  Ni
  Ni12     1.0000 0.81800  0.81100  0.96500  Biso   1.000  Ni
  P1       1.0000 0.26600  0.66700  0.23700  Biso   1.000  P 
  P2       1.0000 0.06740  0.23700  0.33300  Biso   1.000  P 
  P3       1.0000 0.97100  0.76300  0.66700  Biso   1.000  P 
  P4       1.0000 0.69500  0.33300  0.76300  Biso   1.000  P 
