data_image0
_cell_length_a       7.82842
_cell_length_b       11.4287
_cell_length_c       4.73111
_cell_angle_alpha    90
_cell_angle_beta     90
_cell_angle_gamma    90

_symmetry_space_group_name_H-M    "P 1"
_symmetry_int_tables_number       1

loop_
  _symmetry_equiv_pos_as_xyz
  'x, y, z'

loop_
  _atom_site_label
  _atom_site_occupancy
  _atom_site_fract_x
  _atom_site_fract_y
  _atom_site_fract_z
  _atom_site_thermal_displace_type
  _atom_site_B_iso_or_equiv
  _atom_site_type_symbol
  Br1      1.0000 0.12000  0.10900  0.25000  Biso   1.000  Br
  Br2      1.0000 0.62300  0.12500  0.25000  Biso   1.000  Br
  Br3      1.0000 0.38000  0.60900  0.25000  Biso   1.000  Br
  Br4      1.0000 0.87700  0.62500  0.25000  Biso   1.000  Br
  Br5      1.0000 0.12300  0.37500  0.75000  Biso   1.000  Br
  Br6      1.0000 0.62000  0.39100  0.75000  Biso   1.000  Br
  Br7      1.0000 0.37700  0.87500  0.75000  Biso   1.000  Br
  Br8      1.0000 0.88000  0.89100  0.75000  Biso   1.000  Br
  Sr1      1.0000 0.36700  0.33000  0.25000  Biso   1.000  Sr
  Sr2      1.0000 0.13300  0.83000  0.25000  Biso   1.000  Sr
  Sr3      1.0000 0.86700  0.17000  0.75000  Biso   1.000  Sr
  Sr4      1.0000 0.63300  0.67000  0.75000  Biso   1.000  Sr
