data_image0
_cell_length_a       5.7397
_cell_length_b       5.7397
_cell_length_c       5.7397
_cell_angle_alpha    106.169
_cell_angle_beta     116.299
_cell_angle_gamma    106.169

_symmetry_space_group_name_H-M    "P 1"
_symmetry_int_tables_number       1

loop_
  _symmetry_equiv_pos_as_xyz
  'x, y, z'

loop_
  _atom_site_label
  _atom_site_occupancy
  _atom_site_fract_x
  _atom_site_fract_y
  _atom_site_fract_z
  _atom_site_thermal_displace_type
  _atom_site_B_iso_or_equiv
  _atom_site_type_symbol
  O1       1.0000 0.29000  0.57400  0.21600  Biso   1.000  O 
  O2       1.0000 0.64200  0.92600  0.21600  Biso   1.000  O 
  O3       1.0000 0.21600  0.07420  0.29000  Biso   1.000  O 
  O4       1.0000 0.78400  0.57400  0.35800  Biso   1.000  O 
  O5       1.0000 0.21600  0.42600  0.64200  Biso   1.000  O 
  O6       1.0000 0.78400  0.92600  0.71000  Biso   1.000  O 
  O7       1.0000 0.35800  0.07420  0.78400  Biso   1.000  O 
  O8       1.0000 0.71000  0.42600  0.78400  Biso   1.000  O 
  P1       1.0000 0.62500  0.75000  0.37500  Biso   1.000  P 
  P2       1.0000 0.37500  0.25000  0.62500  Biso   1.000  P 
  Tb1      1.0000 0.87500  0.25000  0.12500  Biso   1.000  Tb
  Tb2      1.0000 0.12500  0.75000  0.87500  Biso   1.000  Tb
