data_image0
_cell_length_a       4.00395
_cell_length_b       4.1118
_cell_length_c       5.75065
_cell_angle_alpha    90
_cell_angle_beta     96.4773
_cell_angle_gamma    90

_symmetry_space_group_name_H-M    "P 1"
_symmetry_int_tables_number       1

loop_
  _symmetry_equiv_pos_as_xyz
  'x, y, z'

loop_
  _atom_site_label
  _atom_site_occupancy
  _atom_site_fract_x
  _atom_site_fract_y
  _atom_site_fract_z
  _atom_site_thermal_displace_type
  _atom_site_B_iso_or_equiv
  _atom_site_type_symbol
  Ag1      1.0000 0.18000  0.25000  0.20500  Biso   1.000  Ag
  Ag2      1.0000 0.82000  0.75000  0.79500  Biso   1.000  Ag
  Br1      1.0000 0.70300  0.75000  0.27100  Biso   1.000  Br
  Br2      1.0000 0.29700  0.25000  0.72900  Biso   1.000  Br
