data_image0
_cell_length_a       3.96534
_cell_length_b       7.50833
_cell_length_c       7.77294
_cell_angle_alpha    75.2162
_cell_angle_beta     90
_cell_angle_gamma    74.6887

_symmetry_space_group_name_H-M    "P 1"
_symmetry_int_tables_number       1

loop_
  _symmetry_equiv_pos_as_xyz
  'x, y, z'

loop_
  _atom_site_label
  _atom_site_occupancy
  _atom_site_fract_x
  _atom_site_fract_y
  _atom_site_fract_z
  _atom_site_thermal_displace_type
  _atom_site_B_iso_or_equiv
  _atom_site_type_symbol
  Cl1      1.0000 0.13900  0.67700  0.03380  Biso   1.000  Cl
  Cl2      1.0000 0.86200  0.32200  0.37500  Biso   1.000  Cl
  Cl3      1.0000 0.18400  0.67700  0.53400  Biso   1.000  Cl
  Cl4      1.0000 0.81600  0.32200  0.87500  Biso   1.000  Cl
  Mo1      1.0000 0.93400  0.99900  0.49800  Biso   1.000  Mo
  Mo2      1.0000 0.06690  0.99900  0.99800  Biso   1.000  Mo
  O1       1.0000 0.00994  0.99900  0.22200  Biso   1.000  O 
  O2       1.0000 0.49700  0.99900  0.47700  Biso   1.000  O 
  O3       1.0000 0.99100  0.99900  0.72200  Biso   1.000  O 
  O4       1.0000 0.50400  0.99900  0.97700  Biso   1.000  O 
