data_image0
_cell_length_a       7.97851
_cell_length_b       5.12875
_cell_length_c       9.67087
_cell_angle_alpha    90
_cell_angle_beta     90
_cell_angle_gamma    90

_symmetry_space_group_name_H-M    "P 1"
_symmetry_int_tables_number       1

loop_
  _symmetry_equiv_pos_as_xyz
  'x, y, z'

loop_
  _atom_site_label
  _atom_site_occupancy
  _atom_site_fract_x
  _atom_site_fract_y
  _atom_site_fract_z
  _atom_site_thermal_displace_type
  _atom_site_B_iso_or_equiv
  _atom_site_type_symbol
  Ca1      1.0000 0.65800  0.25000  0.07010  Biso   1.000  Ca
  Ca2      1.0000 0.97900  0.75000  0.18500  Biso   1.000  Ca
  Ca3      1.0000 0.47900  0.75000  0.31500  Biso   1.000  Ca
  Ca4      1.0000 0.15800  0.25000  0.43000  Biso   1.000  Ca
  Ca5      1.0000 0.84200  0.75000  0.57000  Biso   1.000  Ca
  Ca6      1.0000 0.52100  0.25000  0.68500  Biso   1.000  Ca
  Ca7      1.0000 0.02100  0.25000  0.81500  Biso   1.000  Ca
  Ca8      1.0000 0.34200  0.75000  0.93000  Biso   1.000  Ca
  Pb1      1.0000 0.24900  0.25000  0.11000  Biso   1.000  Pb
  Pb2      1.0000 0.74900  0.25000  0.39000  Biso   1.000  Pb
  Pb3      1.0000 0.25100  0.75000  0.61000  Biso   1.000  Pb
  Pb4      1.0000 0.75100  0.75000  0.89000  Biso   1.000  Pb
