data_image0
_cell_length_a       13.0079
_cell_length_b       6.81256
_cell_length_c       6.61637
_cell_angle_alpha    90
_cell_angle_beta     90
_cell_angle_gamma    90

_symmetry_space_group_name_H-M    "P 1"
_symmetry_int_tables_number       1

loop_
  _symmetry_equiv_pos_as_xyz
  'x, y, z'

loop_
  _atom_site_label
  _atom_site_occupancy
  _atom_site_fract_x
  _atom_site_fract_y
  _atom_site_fract_z
  _atom_site_thermal_displace_type
  _atom_site_B_iso_or_equiv
  _atom_site_type_symbol
  Cl1      1.0000 0.97200  0.26300  0.00012  Biso   1.000  Cl
  Cl2      1.0000 0.52800  0.76300  0.00012  Biso   1.000  Cl
  Cl3      1.0000 0.20700  0.11800  0.14300  Biso   1.000  Cl
  Cl4      1.0000 0.29300  0.61800  0.14300  Biso   1.000  Cl
  Cl5      1.0000 0.70700  0.11800  0.35700  Biso   1.000  Cl
  Cl6      1.0000 0.79300  0.61800  0.35700  Biso   1.000  Cl
  Cl7      1.0000 0.47200  0.26300  0.50000  Biso   1.000  Cl
  Cl8      1.0000 0.02770  0.76300  0.50000  Biso   1.000  Cl
  Cl9      1.0000 0.97200  0.23700  0.50000  Biso   1.000  Cl
  Cl10     1.0000 0.52800  0.73700  0.50000  Biso   1.000  Cl
  Cl11     1.0000 0.20700  0.38200  0.64300  Biso   1.000  Cl
  Cl12     1.0000 0.29300  0.88200  0.64300  Biso   1.000  Cl
  Cl13     1.0000 0.70700  0.38200  0.85700  Biso   1.000  Cl
  Cl14     1.0000 0.79300  0.88200  0.85700  Biso   1.000  Cl
  Cl15     1.0000 0.47200  0.23700  1.00000  Biso   1.000  Cl
  Cl16     1.0000 0.02770  0.73700  1.00000  Biso   1.000  Cl
  Yb1      1.0000 0.61200  0.45600  0.23100  Biso   1.000  Yb
  Yb2      1.0000 0.88800  0.95600  0.23100  Biso   1.000  Yb
  Yb3      1.0000 0.11200  0.45600  0.26900  Biso   1.000  Yb
  Yb4      1.0000 0.38800  0.95600  0.26900  Biso   1.000  Yb
  Yb5      1.0000 0.61200  0.04410  0.73100  Biso   1.000  Yb
  Yb6      1.0000 0.88800  0.54400  0.73100  Biso   1.000  Yb
  Yb7      1.0000 0.11200  0.04410  0.76900  Biso   1.000  Yb
  Yb8      1.0000 0.38800  0.54400  0.76900  Biso   1.000  Yb
