data_image0
_cell_length_a       4.20518
_cell_length_b       4.20518
_cell_length_c       4.32607
_cell_angle_alpha    90
_cell_angle_beta     60.9201
_cell_angle_gamma    120

_symmetry_space_group_name_H-M    "P 1"
_symmetry_int_tables_number       1

loop_
  _symmetry_equiv_pos_as_xyz
  'x, y, z'

loop_
  _atom_site_label
  _atom_site_occupancy
  _atom_site_fract_x
  _atom_site_fract_y
  _atom_site_fract_z
  _atom_site_thermal_displace_type
  _atom_site_B_iso_or_equiv
  _atom_site_type_symbol
  Ge1      1.0000 0.47300  0.23700  0.29000  Biso   1.000  Ge
  Te1      1.0000 0.52700  0.76300  0.71000  Biso   1.000  Te
