data_image0
_cell_length_a       8.58296
_cell_length_b       8.58296
_cell_length_c       8.58296
_cell_angle_alpha    60
_cell_angle_beta     60
_cell_angle_gamma    60

_symmetry_space_group_name_H-M    "P 1"
_symmetry_int_tables_number       1

loop_
  _symmetry_equiv_pos_as_xyz
  'x, y, z'

loop_
  _atom_site_label
  _atom_site_occupancy
  _atom_site_fract_x
  _atom_site_fract_y
  _atom_site_fract_z
  _atom_site_thermal_displace_type
  _atom_site_B_iso_or_equiv
  _atom_site_type_symbol
  Ce1      1.0000 0.87500  0.37500  0.37500  Biso   1.000  Ce
  Ce2      1.0000 0.37500  0.87500  0.37500  Biso   1.000  Ce
  Ce3      1.0000 0.37500  0.37500  0.37500  Biso   1.000  Ce
  Ce4      1.0000 0.37500  0.37500  0.87500  Biso   1.000  Ce
  Ru1      1.0000 0.25000  0.25000  0.25000  Biso   1.000  Ru
  Ru2      1.0000 0.50000  0.50000  0.50000  Biso   1.000  Ru
