data_image0
_cell_length_a       4.12179
_cell_length_b       4.51833
_cell_length_c       4.51833
_cell_angle_alpha    61.0029
_cell_angle_beta     90
_cell_angle_gamma    90

_symmetry_space_group_name_H-M    "P 1"
_symmetry_int_tables_number       1

loop_
  _symmetry_equiv_pos_as_xyz
  'x, y, z'

loop_
  _atom_site_label
  _atom_site_occupancy
  _atom_site_fract_x
  _atom_site_fract_y
  _atom_site_fract_z
  _atom_site_thermal_displace_type
  _atom_site_B_iso_or_equiv
  _atom_site_type_symbol
  B1       1.0000 0.56800  0.32500  0.00333  Biso   1.000  B 
  B2       1.0000 0.06760  0.00333  0.32500  Biso   1.000  B 
  B3       1.0000 0.56800  0.99700  0.67500  Biso   1.000  B 
  B4       1.0000 0.06760  0.67500  0.99700  Biso   1.000  B 
  O1       1.0000 0.92100  0.33800  0.07410  Biso   1.000  O 
  O2       1.0000 0.99600  0.74700  0.25300  Biso   1.000  O 
  O3       1.0000 0.42100  0.07410  0.33800  Biso   1.000  O 
  O4       1.0000 0.92100  0.92600  0.66200  Biso   1.000  O 
  O5       1.0000 0.49600  0.25300  0.74700  Biso   1.000  O 
  O6       1.0000 0.42100  0.66200  0.92600  Biso   1.000  O 
