data_image0
_cell_length_a       10.5424
_cell_length_b       4.35016
_cell_length_c       4.18127
_cell_angle_alpha    90
_cell_angle_beta     90
_cell_angle_gamma    90

_symmetry_space_group_name_H-M    "P 1"
_symmetry_int_tables_number       1

loop_
  _symmetry_equiv_pos_as_xyz
  'x, y, z'

loop_
  _atom_site_label
  _atom_site_occupancy
  _atom_site_fract_x
  _atom_site_fract_y
  _atom_site_fract_z
  _atom_site_thermal_displace_type
  _atom_site_B_iso_or_equiv
  _atom_site_type_symbol
  B1       1.0000 0.25100  0.82100  0.38700  Biso   1.000  B 
  B2       1.0000 0.74900  0.82100  0.38700  Biso   1.000  B 
  B3       1.0000 0.12000  0.32700  0.40800  Biso   1.000  B 
  B4       1.0000 0.88000  0.32700  0.40800  Biso   1.000  B 
  B5       1.0000 0.24900  0.17900  0.88700  Biso   1.000  B 
  B6       1.0000 0.75100  0.17900  0.88700  Biso   1.000  B 
  B7       1.0000 0.38000  0.67300  0.90800  Biso   1.000  B 
  B8       1.0000 0.62000  0.67300  0.90800  Biso   1.000  B 
  Ca1      1.0000 0.50000  0.19900  0.39700  Biso   1.000  Ca
  Ca2      1.0000 0.00000  0.80100  0.89700  Biso   1.000  Ca
  O1       1.0000 0.22700  0.14000  0.24700  Biso   1.000  O 
  O2       1.0000 0.77300  0.14000  0.24700  Biso   1.000  O 
  O3       1.0000 0.36700  0.72000  0.25200  Biso   1.000  O 
  O4       1.0000 0.63300  0.72000  0.25200  Biso   1.000  O 
  O5       1.0000 0.00000  0.21200  0.29700  Biso   1.000  O 
  O6       1.0000 0.13600  0.64900  0.33000  Biso   1.000  O 
  O7       1.0000 0.86400  0.64900  0.33000  Biso   1.000  O 
  O8       1.0000 0.27300  0.86000  0.74700  Biso   1.000  O 
  O9       1.0000 0.72700  0.86000  0.74700  Biso   1.000  O 
  O10      1.0000 0.13300  0.28000  0.75100  Biso   1.000  O 
  O11      1.0000 0.86700  0.28000  0.75100  Biso   1.000  O 
  O12      1.0000 0.50000  0.78800  0.79700  Biso   1.000  O 
  O13      1.0000 0.36400  0.35100  0.83000  Biso   1.000  O 
  O14      1.0000 0.63600  0.35100  0.83000  Biso   1.000  O 
