data_image0
_cell_length_a       9.16232
_cell_length_b       8.04181
_cell_length_c       4.77947
_cell_angle_alpha    90
_cell_angle_beta     90
_cell_angle_gamma    90

_symmetry_space_group_name_H-M    "P 1"
_symmetry_int_tables_number       1

loop_
  _symmetry_equiv_pos_as_xyz
  'x, y, z'

loop_
  _atom_site_label
  _atom_site_occupancy
  _atom_site_fract_x
  _atom_site_fract_y
  _atom_site_fract_z
  _atom_site_thermal_displace_type
  _atom_site_B_iso_or_equiv
  _atom_site_type_symbol
  Al1      1.0000 0.37000  0.74200  0.50000  Biso   1.000  Al
  Al2      1.0000 0.87000  0.75800  0.50000  Biso   1.000  Al
  Al3      1.0000 0.13000  0.24200  0.00000  Biso   1.000  Al
  Al4      1.0000 0.63000  0.25800  0.00000  Biso   1.000  Al
  F1       1.0000 0.23200  0.06820  0.14600  Biso   1.000  F 
  F2       1.0000 0.73200  0.43200  0.14600  Biso   1.000  F 
  F3       1.0000 0.74800  0.11200  0.17700  Biso   1.000  F 
  F4       1.0000 0.24800  0.38800  0.17700  Biso   1.000  F 
  F5       1.0000 0.25800  0.73300  0.19300  Biso   1.000  F 
  F6       1.0000 0.75800  0.76700  0.19300  Biso   1.000  F 
  F7       1.0000 0.02120  0.24600  0.31500  Biso   1.000  F 
  F8       1.0000 0.52100  0.25400  0.31500  Biso   1.000  F 
  F9       1.0000 0.48800  0.58500  0.33400  Biso   1.000  F 
  F10      1.0000 0.98800  0.91500  0.33400  Biso   1.000  F 
  F11      1.0000 0.97600  0.59800  0.34300  Biso   1.000  F 
  F12      1.0000 0.47600  0.90200  0.34300  Biso   1.000  F 
  F13      1.0000 0.26800  0.56800  0.64600  Biso   1.000  F 
  F14      1.0000 0.76800  0.93200  0.64600  Biso   1.000  F 
  F15      1.0000 0.75200  0.61200  0.67700  Biso   1.000  F 
  F16      1.0000 0.25200  0.88800  0.67700  Biso   1.000  F 
  F17      1.0000 0.24200  0.23300  0.69300  Biso   1.000  F 
  F18      1.0000 0.74200  0.26700  0.69300  Biso   1.000  F 
  F19      1.0000 0.47900  0.74600  0.81500  Biso   1.000  F 
  F20      1.0000 0.97900  0.75400  0.81500  Biso   1.000  F 
  F21      1.0000 0.01180  0.08480  0.83400  Biso   1.000  F 
  F22      1.0000 0.51200  0.41500  0.83400  Biso   1.000  F 
  F23      1.0000 0.52400  0.09780  0.84300  Biso   1.000  F 
  F24      1.0000 0.02380  0.40200  0.84300  Biso   1.000  F 
  Li1      1.0000 0.35400  0.55300  0.00154  Biso   1.000  Li
  Li2      1.0000 0.85400  0.94700  0.00154  Biso   1.000  Li
  Li3      1.0000 0.62400  0.63700  0.00786  Biso   1.000  Li
  Li4      1.0000 0.12400  0.86300  0.00786  Biso   1.000  Li
  Li5      1.0000 0.60500  0.05060  0.49000  Biso   1.000  Li
  Li6      1.0000 0.10500  0.44900  0.49000  Biso   1.000  Li
  Li7      1.0000 0.14600  0.05280  0.50200  Biso   1.000  Li
  Li8      1.0000 0.64600  0.44700  0.50200  Biso   1.000  Li
  Li9      1.0000 0.87600  0.13700  0.50800  Biso   1.000  Li
  Li10     1.0000 0.37600  0.36300  0.50800  Biso   1.000  Li
  Li11     1.0000 0.89500  0.55100  0.99000  Biso   1.000  Li
  Li12     1.0000 0.39500  0.94900  0.99000  Biso   1.000  Li
