data_image0
_cell_length_a       3.68064
_cell_length_b       3.68064
_cell_length_c       6.60307
_cell_angle_alpha    73.817
_cell_angle_beta     106.183
_cell_angle_gamma    120

_symmetry_space_group_name_H-M    "P 1"
_symmetry_int_tables_number       1

loop_
  _symmetry_equiv_pos_as_xyz
  'x, y, z'

loop_
  _atom_site_label
  _atom_site_occupancy
  _atom_site_fract_x
  _atom_site_fract_y
  _atom_site_fract_z
  _atom_site_thermal_displace_type
  _atom_site_B_iso_or_equiv
  _atom_site_type_symbol
  Br1      1.0000 0.74100  0.25900  0.22300  Biso   1.000  Br
  Br2      1.0000 0.25900  0.74100  0.77700  Biso   1.000  Br
  Ni1      1.0000 0.00000  0.00000  0.00000  Biso   1.000  Ni
