data_image0
_cell_length_a       5.81104
_cell_length_b       13.6832
_cell_length_c       6.08135
_cell_angle_alpha    90
_cell_angle_beta     92.9219
_cell_angle_gamma    90

_symmetry_space_group_name_H-M    "P 1"
_symmetry_int_tables_number       1

loop_
  _symmetry_equiv_pos_as_xyz
  'x, y, z'

loop_
  _atom_site_label
  _atom_site_occupancy
  _atom_site_fract_x
  _atom_site_fract_y
  _atom_site_fract_z
  _atom_site_thermal_displace_type
  _atom_site_B_iso_or_equiv
  _atom_site_type_symbol
  Cl1      1.0000 0.17100  0.30700  0.05720  Biso   1.000  Cl
  Cl2      1.0000 0.28200  0.81500  0.11400  Biso   1.000  Cl
  Cl3      1.0000 0.29500  0.56500  0.14400  Biso   1.000  Cl
  Cl4      1.0000 0.70500  0.06500  0.35600  Biso   1.000  Cl
  Cl5      1.0000 0.71800  0.31500  0.38600  Biso   1.000  Cl
  Cl6      1.0000 0.82900  0.80700  0.44300  Biso   1.000  Cl
  Cl7      1.0000 0.17100  0.19300  0.55700  Biso   1.000  Cl
  Cl8      1.0000 0.28200  0.68500  0.61400  Biso   1.000  Cl
  Cl9      1.0000 0.29500  0.93500  0.64400  Biso   1.000  Cl
  Cl10     1.0000 0.70500  0.43500  0.85600  Biso   1.000  Cl
  Cl11     1.0000 0.71800  0.18500  0.88600  Biso   1.000  Cl
  Cl12     1.0000 0.82900  0.69300  0.94300  Biso   1.000  Cl
  Mo1      1.0000 0.97200  0.16000  0.19400  Biso   1.000  Mo
  Mo2      1.0000 0.02750  0.66000  0.30600  Biso   1.000  Mo
  Mo3      1.0000 0.97200  0.34000  0.69400  Biso   1.000  Mo
  Mo4      1.0000 0.02750  0.84000  0.80600  Biso   1.000  Mo
  O1       1.0000 0.16500  0.07770  0.11100  Biso   1.000  O 
  O2       1.0000 0.83500  0.57800  0.38900  Biso   1.000  O 
  O3       1.0000 0.16500  0.42200  0.61100  Biso   1.000  O 
  O4       1.0000 0.83500  0.92200  0.88900  Biso   1.000  O 
