data_image0
_cell_length_a       6.26179
_cell_length_b       5.09336
_cell_length_c       7.87098
_cell_angle_alpha    90
_cell_angle_beta     113.592
_cell_angle_gamma    90

_symmetry_space_group_name_H-M    "P 1"
_symmetry_int_tables_number       1

loop_
  _symmetry_equiv_pos_as_xyz
  'x, y, z'

loop_
  _atom_site_label
  _atom_site_occupancy
  _atom_site_fract_x
  _atom_site_fract_y
  _atom_site_fract_z
  _atom_site_thermal_displace_type
  _atom_site_B_iso_or_equiv
  _atom_site_type_symbol
  Ag1      1.0000 0.86200  0.95100  0.10300  Biso   1.000  Ag
  Ag2      1.0000 0.13800  0.45100  0.39700  Biso   1.000  Ag
  Ag3      1.0000 0.86200  0.54900  0.60300  Biso   1.000  Ag
  Ag4      1.0000 0.13800  0.04950  0.89700  Biso   1.000  Ag
  P1       1.0000 0.41000  0.40500  0.08280  Biso   1.000  P 
  P2       1.0000 0.27700  0.73100  0.19900  Biso   1.000  P 
  P3       1.0000 0.72300  0.23100  0.30100  Biso   1.000  P 
  P4       1.0000 0.59000  0.90500  0.41700  Biso   1.000  P 
  P5       1.0000 0.41000  0.09530  0.58300  Biso   1.000  P 
  P6       1.0000 0.27700  0.76900  0.69900  Biso   1.000  P 
  P7       1.0000 0.72300  0.26900  0.80100  Biso   1.000  P 
  P8       1.0000 0.59000  0.59500  0.91700  Biso   1.000  P 
