data_image0
_cell_length_a       6.92482
_cell_length_b       6.92482
_cell_length_c       6.92482
_cell_angle_alpha    120.011
_cell_angle_beta     89.9807
_cell_angle_gamma    120.011

_symmetry_space_group_name_H-M    "P 1"
_symmetry_int_tables_number       1

loop_
  _symmetry_equiv_pos_as_xyz
  'x, y, z'

loop_
  _atom_site_label
  _atom_site_occupancy
  _atom_site_fract_x
  _atom_site_fract_y
  _atom_site_fract_z
  _atom_site_thermal_displace_type
  _atom_site_B_iso_or_equiv
  _atom_site_type_symbol
  Cr1      1.0000 0.00000  0.00000  0.00000  Biso   1.000  Cr
  Cr2      1.0000 0.75000  0.50000  0.25000  Biso   1.000  Cr
  La1      1.0000 0.37500  0.75000  0.12500  Biso   1.000  La
  La2      1.0000 0.87500  0.25000  0.62500  Biso   1.000  La
  La3      1.0000 0.37500  0.75000  0.62500  Biso   1.000  La
  La4      1.0000 0.37500  0.25000  0.62500  Biso   1.000  La
  O1       1.0000 0.62300  0.75400  0.37700  Biso   1.000  O 
  O2       1.0000 0.62300  0.24600  0.37700  Biso   1.000  O 
  O3       1.0000 0.13100  0.75400  0.37700  Biso   1.000  O 
  O4       1.0000 0.12700  0.25400  0.38100  Biso   1.000  O 
  O5       1.0000 0.62300  0.24600  0.86900  Biso   1.000  O 
  O6       1.0000 0.12700  0.25400  0.87300  Biso   1.000  O 
  O7       1.0000 0.61900  0.74600  0.87300  Biso   1.000  O 
  O8       1.0000 0.12700  0.74600  0.87300  Biso   1.000  O 
