data_image0
_cell_length_a       6.88145
_cell_length_b       6.88145
_cell_length_c       11.1942
_cell_angle_alpha    98.7457
_cell_angle_beta     98.7457
_cell_angle_gamma    90.0259

_symmetry_space_group_name_H-M    "P 1"
_symmetry_int_tables_number       1

loop_
  _symmetry_equiv_pos_as_xyz
  'x, y, z'

loop_
  _atom_site_label
  _atom_site_occupancy
  _atom_site_fract_x
  _atom_site_fract_y
  _atom_site_fract_z
  _atom_site_thermal_displace_type
  _atom_site_B_iso_or_equiv
  _atom_site_type_symbol
  As1      1.0000 0.25100  0.37600  0.00118  Biso   1.000  As
  As2      1.0000 0.75200  0.12600  0.00716  Biso   1.000  As
  As3      1.0000 0.06630  0.44300  0.24900  Biso   1.000  As
  As4      1.0000 0.55700  0.44300  0.25000  Biso   1.000  As
  As5      1.0000 0.06720  0.93300  0.25000  Biso   1.000  As
  As6      1.0000 0.55700  0.93400  0.25100  Biso   1.000  As
  As7      1.0000 0.87400  0.24800  0.49300  Biso   1.000  As
  As8      1.0000 0.62400  0.74900  0.49900  Biso   1.000  As
  As9      1.0000 0.37600  0.25100  0.50100  Biso   1.000  As
  As10     1.0000 0.12600  0.75200  0.50700  Biso   1.000  As
  As11     1.0000 0.44300  0.06630  0.74900  Biso   1.000  As
  As12     1.0000 0.93300  0.06720  0.75000  Biso   1.000  As
  As13     1.0000 0.44300  0.55700  0.75000  Biso   1.000  As
  As14     1.0000 0.93400  0.55700  0.75100  Biso   1.000  As
  As15     1.0000 0.24800  0.87400  0.99300  Biso   1.000  As
  As16     1.0000 0.74900  0.62400  0.99900  Biso   1.000  As
  Ni1      1.0000 0.08460  0.65100  0.09260  Biso   1.000  Ni
  Ni2      1.0000 0.46800  0.14600  0.09270  Biso   1.000  Ni
  Ni3      1.0000 0.46000  0.65100  0.09280  Biso   1.000  Ni
  Ni4      1.0000 0.07800  0.14700  0.09370  Biso   1.000  Ni
  Ni5      1.0000 0.80200  0.67700  0.21400  Biso   1.000  Ni
  Ni6      1.0000 0.81100  0.18900  0.25000  Biso   1.000  Ni
  Ni7      1.0000 0.32300  0.19800  0.28600  Biso   1.000  Ni
  Ni8      1.0000 0.85300  0.92200  0.40600  Biso   1.000  Ni
  Ni9      1.0000 0.34900  0.54000  0.40700  Biso   1.000  Ni
  Ni10     1.0000 0.85400  0.53200  0.40700  Biso   1.000  Ni
  Ni11     1.0000 0.34900  0.91500  0.40700  Biso   1.000  Ni
  Ni12     1.0000 0.65100  0.08460  0.59300  Biso   1.000  Ni
  Ni13     1.0000 0.14600  0.46800  0.59300  Biso   1.000  Ni
  Ni14     1.0000 0.65100  0.46000  0.59300  Biso   1.000  Ni
  Ni15     1.0000 0.14700  0.07800  0.59400  Biso   1.000  Ni
  Ni16     1.0000 0.67700  0.80200  0.71400  Biso   1.000  Ni
  Ni17     1.0000 0.18900  0.81100  0.75000  Biso   1.000  Ni
  Ni18     1.0000 0.19800  0.32300  0.78600  Biso   1.000  Ni
  Ni19     1.0000 0.92200  0.85300  0.90600  Biso   1.000  Ni
  Ni20     1.0000 0.54000  0.34900  0.90700  Biso   1.000  Ni
  Ni21     1.0000 0.53200  0.85400  0.90700  Biso   1.000  Ni
  Ni22     1.0000 0.91500  0.34900  0.90700  Biso   1.000  Ni
