data_image0
_cell_length_a       5.83266
_cell_length_b       5.83265
_cell_length_c       5.83265
_cell_angle_alpha    48.4841
_cell_angle_beta     48.4841
_cell_angle_gamma    48.4841

_symmetry_space_group_name_H-M    "P 1"
_symmetry_int_tables_number       1

loop_
  _symmetry_equiv_pos_as_xyz
  'x, y, z'

loop_
  _atom_site_label
  _atom_site_occupancy
  _atom_site_fract_x
  _atom_site_fract_y
  _atom_site_fract_z
  _atom_site_thermal_displace_type
  _atom_site_B_iso_or_equiv
  _atom_site_type_symbol
  C1       1.0000 0.25000  0.25000  0.25000  Biso   1.000  C 
  C2       1.0000 0.75000  0.75000  0.75000  Biso   1.000  C 
  Mn1      1.0000 0.00000  0.00000  0.00000  Biso   1.000  Mn
  Mn2      1.0000 0.50000  0.50000  0.50000  Biso   1.000  Mn
  O1       1.0000 0.75000  0.48000  0.02010  Biso   1.000  O 
  O2       1.0000 0.52000  0.98000  0.25000  Biso   1.000  O 
  O3       1.0000 0.02010  0.75000  0.48000  Biso   1.000  O 
  O4       1.0000 0.98000  0.25000  0.52000  Biso   1.000  O 
  O5       1.0000 0.48000  0.02010  0.75000  Biso   1.000  O 
  O6       1.0000 0.25000  0.52000  0.98000  Biso   1.000  O 
