data_image0
_cell_length_a       4.09372
_cell_length_b       4.15203
_cell_length_c       5.78481
_cell_angle_alpha    90
_cell_angle_beta     69.2781
_cell_angle_gamma    90

_symmetry_space_group_name_H-M    "P 1"
_symmetry_int_tables_number       1

loop_
  _symmetry_equiv_pos_as_xyz
  'x, y, z'

loop_
  _atom_site_label
  _atom_site_occupancy
  _atom_site_fract_x
  _atom_site_fract_y
  _atom_site_fract_z
  _atom_site_thermal_displace_type
  _atom_site_B_iso_or_equiv
  _atom_site_type_symbol
  H1       1.0000 0.46800  0.12600  0.06470  Biso   1.000  H 
  H2       1.0000 0.53200  0.62600  0.93500  Biso   1.000  H 
  O1       1.0000 0.40200  0.29000  0.19600  Biso   1.000  O 
  O2       1.0000 0.59800  0.79000  0.80400  Biso   1.000  O 
  Rb1      1.0000 0.86000  0.76500  0.28100  Biso   1.000  Rb
  Rb2      1.0000 0.14000  0.26500  0.71900  Biso   1.000  Rb
