data_image0
_cell_length_a       9.43096
_cell_length_b       5.9427
_cell_length_c       12.5467
_cell_angle_alpha    90
_cell_angle_beta     109.225
_cell_angle_gamma    90

_symmetry_space_group_name_H-M    "P 1"
_symmetry_int_tables_number       1

loop_
  _symmetry_equiv_pos_as_xyz
  'x, y, z'

loop_
  _atom_site_label
  _atom_site_occupancy
  _atom_site_fract_x
  _atom_site_fract_y
  _atom_site_fract_z
  _atom_site_thermal_displace_type
  _atom_site_B_iso_or_equiv
  _atom_site_type_symbol
  Cl1      1.0000 0.97900  0.25900  0.07300  Biso   1.000  Cl
  Cl2      1.0000 0.79300  0.69100  0.10100  Biso   1.000  Cl
  Cl3      1.0000 0.38300  0.30100  0.16400  Biso   1.000  Cl
  Cl4      1.0000 0.19600  0.73300  0.19300  Biso   1.000  Cl
  Cl5      1.0000 0.80400  0.23300  0.30700  Biso   1.000  Cl
  Cl6      1.0000 0.61700  0.80100  0.33600  Biso   1.000  Cl
  Cl7      1.0000 0.20700  0.19100  0.39900  Biso   1.000  Cl
  Cl8      1.0000 0.02110  0.75900  0.42700  Biso   1.000  Cl
  Cl9      1.0000 0.97900  0.24100  0.57300  Biso   1.000  Cl
  Cl10     1.0000 0.79300  0.80900  0.60100  Biso   1.000  Cl
  Cl11     1.0000 0.38300  0.19900  0.66400  Biso   1.000  Cl
  Cl12     1.0000 0.19600  0.76700  0.69300  Biso   1.000  Cl
  Cl13     1.0000 0.80400  0.26700  0.80700  Biso   1.000  Cl
  Cl14     1.0000 0.61700  0.69900  0.83600  Biso   1.000  Cl
  Cl15     1.0000 0.20700  0.30900  0.89900  Biso   1.000  Cl
  Cl16     1.0000 0.02110  0.74100  0.92700  Biso   1.000  Cl
  O1       1.0000 0.37400  0.73700  0.02210  Biso   1.000  O 
  O2       1.0000 0.62600  0.23700  0.47800  Biso   1.000  O 
  O3       1.0000 0.37400  0.76300  0.52200  Biso   1.000  O 
  O4       1.0000 0.62600  0.26300  0.97800  Biso   1.000  O 
  W1       1.0000 0.24100  0.56500  0.04210  Biso   1.000  W 
  W2       1.0000 0.75900  0.06470  0.45800  Biso   1.000  W 
  W3       1.0000 0.24100  0.93500  0.54200  Biso   1.000  W 
  W4       1.0000 0.75900  0.43500  0.95800  Biso   1.000  W 
