data_image0
_cell_length_a       5.5827
_cell_length_b       8.51848
_cell_length_c       9.78648
_cell_angle_alpha    91.5204
_cell_angle_beta     106.572
_cell_angle_gamma    109.128

_symmetry_space_group_name_H-M    "P 1"
_symmetry_int_tables_number       1

loop_
  _symmetry_equiv_pos_as_xyz
  'x, y, z'

loop_
  _atom_site_label
  _atom_site_occupancy
  _atom_site_fract_x
  _atom_site_fract_y
  _atom_site_fract_z
  _atom_site_thermal_displace_type
  _atom_site_B_iso_or_equiv
  _atom_site_type_symbol
  Ca1      1.0000 0.84600  0.40400  0.20800  Biso   1.000  Ca
  Ca2      1.0000 0.25400  0.11200  0.28500  Biso   1.000  Ca
  Ca3      1.0000 0.52900  0.53300  0.45800  Biso   1.000  Ca
  Ca4      1.0000 0.76600  0.90400  0.70800  Biso   1.000  Ca
  Ca5      1.0000 0.14300  0.61200  0.78500  Biso   1.000  Ca
  Ca6      1.0000 0.46300  0.03320  0.95800  Biso   1.000  Ca
  H1       1.0000 0.28700  0.55500  0.12500  Biso   1.000  H 
  H2       1.0000 0.68000  0.90500  0.20200  Biso   1.000  H 
  H3       1.0000 0.36000  0.72200  0.23200  Biso   1.000  H 
  H4       1.0000 0.89900  0.74300  0.26000  Biso   1.000  H 
  H5       1.0000 0.64200  0.97500  0.34200  Biso   1.000  H 
  H6       1.0000 0.99700  0.02060  0.49600  Biso   1.000  H 
  H7       1.0000 0.39400  0.05510  0.62500  Biso   1.000  H 
  H8       1.0000 0.42600  0.40500  0.70200  Biso   1.000  H 
  H9       1.0000 0.59400  0.22200  0.73200  Biso   1.000  H 
  H10      1.0000 0.10300  0.24300  0.76000  Biso   1.000  H 
  H11      1.0000 0.67500  0.47500  0.84200  Biso   1.000  H 
  H12      1.0000 0.52000  0.52100  0.99600  Biso   1.000  H 
  O1       1.0000 0.72700  0.56200  0.00803  Biso   1.000  O 
  O2       1.0000 0.90200  0.20900  0.05940  Biso   1.000  O 
  O3       1.0000 0.40500  0.23100  0.10400  Biso   1.000  O 
  O4       1.0000 0.90900  0.86500  0.16000  Biso   1.000  O 
  O5       1.0000 0.29800  0.59700  0.22800  Biso   1.000  O 
  O6       1.0000 0.54000  0.93200  0.23800  Biso   1.000  O 
  O7       1.0000 0.89900  0.66000  0.33900  Biso   1.000  O 
  O8       1.0000 0.12800  0.30700  0.39000  Biso   1.000  O 
  O9       1.0000 0.67800  0.31600  0.41900  Biso   1.000  O 
  O10      1.0000 0.20500  0.96700  0.47700  Biso   1.000  O 
  O11      1.0000 0.84300  0.06220  0.50800  Biso   1.000  O 
  O12      1.0000 0.36700  0.70900  0.55900  Biso   1.000  O 
  O13      1.0000 0.93000  0.73100  0.60400  Biso   1.000  O 
  O14      1.0000 0.11500  0.36500  0.66000  Biso   1.000  O 
  O15      1.0000 0.52700  0.09720  0.72800  Biso   1.000  O 
  O16      1.0000 0.63000  0.43200  0.73800  Biso   1.000  O 
  O17      1.0000 0.10000  0.16000  0.83900  Biso   1.000  O 
  O18      1.0000 0.57000  0.80700  0.89000  Biso   1.000  O 
  O19      1.0000 0.05720  0.81600  0.91900  Biso   1.000  O 
  O20      1.0000 0.23900  0.46700  0.97700  Biso   1.000  O 
  Si1      1.0000 0.11400  0.76800  0.49700  Biso   1.000  Si
  Si2      1.0000 0.94100  0.27100  0.49700  Biso   1.000  Si
  Si3      1.0000 0.15100  0.26800  0.99700  Biso   1.000  Si
  Si4      1.0000 0.82600  0.77100  0.99700  Biso   1.000  Si
