data_image0
_cell_length_a       8.99719
_cell_length_b       8.99422
_cell_length_c       21.8058
_cell_angle_alpha    90.0037
_cell_angle_beta     90
_cell_angle_gamma    120.011

_symmetry_space_group_name_H-M    "P 1"
_symmetry_int_tables_number       1

loop_
  _symmetry_equiv_pos_as_xyz
  'x, y, z'

loop_
  _atom_site_label
  _atom_site_occupancy
  _atom_site_fract_x
  _atom_site_fract_y
  _atom_site_fract_z
  _atom_site_thermal_displace_type
  _atom_site_B_iso_or_equiv
  _atom_site_type_symbol
  Na1      1.0000 0.33300  0.66700  0.45900  Biso   1.000  Na
  Na2      1.0000 0.66700  0.33300  0.04120  Biso   1.000  Na
  Na3      1.0000 0.66700  0.33300  0.54100  Biso   1.000  Na
  Na4      1.0000 0.33300  0.66700  0.95900  Biso   1.000  Na
  Na5      1.0000 0.00000  0.00000  0.62500  Biso   1.000  Na
  Na6      1.0000 0.00002  0.00003  0.87500  Biso   1.000  Na
  Na7      1.0000 0.00001  0.00003  0.37500  Biso   1.000  Na
  Na8      1.0000 0.00000  0.00000  0.12500  Biso   1.000  Na
  Na9      1.0000 0.33300  0.66700  0.70800  Biso   1.000  Na
  Na10     1.0000 0.66700  0.33300  0.79200  Biso   1.000  Na
  Na11     1.0000 0.66700  0.33300  0.29200  Biso   1.000  Na
  Na12     1.0000 0.33300  0.66700  0.20800  Biso   1.000  Na
  Te1      1.0000 0.47900  0.99400  0.12200  Biso   1.000  Te
  Te2      1.0000 0.00638  0.48500  0.12300  Biso   1.000  Te
  Te3      1.0000 0.51500  0.52100  0.12300  Biso   1.000  Te
  Te4      1.0000 0.48500  0.00599  0.37800  Biso   1.000  Te
  Te5      1.0000 0.52100  0.51500  0.37700  Biso   1.000  Te
  Te6      1.0000 0.99400  0.47900  0.37700  Biso   1.000  Te
  Te7      1.0000 0.52100  0.00599  0.87800  Biso   1.000  Te
  Te8      1.0000 0.99400  0.51500  0.87700  Biso   1.000  Te
  Te9      1.0000 0.48500  0.47900  0.87700  Biso   1.000  Te
  Te10     1.0000 0.51500  0.99400  0.62200  Biso   1.000  Te
  Te11     1.0000 0.47900  0.48500  0.62300  Biso   1.000  Te
  Te12     1.0000 0.00643  0.52100  0.62300  Biso   1.000  Te
  Te13     1.0000 0.80200  0.66400  0.20700  Biso   1.000  Te
  Te14     1.0000 0.33600  0.13800  0.20700  Biso   1.000  Te
  Te15     1.0000 0.86200  0.19700  0.20700  Biso   1.000  Te
  Te16     1.0000 0.13900  0.33600  0.29300  Biso   1.000  Te
  Te17     1.0000 0.19700  0.86200  0.29300  Biso   1.000  Te
  Te18     1.0000 0.66500  0.80300  0.29300  Biso   1.000  Te
  Te19     1.0000 0.19800  0.33600  0.79300  Biso   1.000  Te
  Te20     1.0000 0.66400  0.86200  0.79300  Biso   1.000  Te
  Te21     1.0000 0.13800  0.80300  0.79300  Biso   1.000  Te
  Te22     1.0000 0.86100  0.66400  0.70700  Biso   1.000  Te
  Te23     1.0000 0.80300  0.13800  0.70700  Biso   1.000  Te
  Te24     1.0000 0.33500  0.19700  0.70700  Biso   1.000  Te
  Te25     1.0000 0.67000  0.84000  0.54000  Biso   1.000  Te
  Te26     1.0000 0.16000  0.83000  0.54000  Biso   1.000  Te
  Te27     1.0000 0.17000  0.33000  0.54100  Biso   1.000  Te
  Te28     1.0000 0.83000  0.16000  0.96000  Biso   1.000  Te
  Te29     1.0000 0.33000  0.17000  0.96000  Biso   1.000  Te
  Te30     1.0000 0.84000  0.67000  0.95900  Biso   1.000  Te
  Te31     1.0000 0.33000  0.16000  0.46000  Biso   1.000  Te
  Te32     1.0000 0.84000  0.17000  0.46000  Biso   1.000  Te
  Te33     1.0000 0.83000  0.67000  0.45900  Biso   1.000  Te
  Te34     1.0000 0.17000  0.84000  0.04050  Biso   1.000  Te
  Te35     1.0000 0.67000  0.83000  0.04040  Biso   1.000  Te
  Te36     1.0000 0.16000  0.33000  0.04050  Biso   1.000  Te
