data_image0
_cell_length_a       4.37963
_cell_length_b       4.37963
_cell_length_c       4.95116
_cell_angle_alpha    90
_cell_angle_beta     90
_cell_angle_gamma    120

_symmetry_space_group_name_H-M    "P 1"
_symmetry_int_tables_number       1

loop_
  _symmetry_equiv_pos_as_xyz
  'x, y, z'

loop_
  _atom_site_label
  _atom_site_occupancy
  _atom_site_fract_x
  _atom_site_fract_y
  _atom_site_fract_z
  _atom_site_thermal_displace_type
  _atom_site_B_iso_or_equiv
  _atom_site_type_symbol
  Be1      1.0000 0.55800  0.55800  0.00002  Biso   1.000  Be
  Be2      1.0000 0.44200  0.00000  0.33300  Biso   1.000  Be
  Be3      1.0000 0.00000  0.44200  0.66700  Biso   1.000  Be
  F1       1.0000 0.60800  0.91500  0.09040  Biso   1.000  F 
  F2       1.0000 0.39200  0.30700  0.24300  Biso   1.000  F 
  F3       1.0000 0.08460  0.69300  0.42400  Biso   1.000  F 
  F4       1.0000 0.69300  0.08460  0.57600  Biso   1.000  F 
  F5       1.0000 0.30700  0.39200  0.75700  Biso   1.000  F 
  F6       1.0000 0.91500  0.60800  0.91000  Biso   1.000  F 
