data_image0
_cell_length_a       3.85582
_cell_length_b       3.85582
_cell_length_c       6.21757
_cell_angle_alpha    90
_cell_angle_beta     90
_cell_angle_gamma    88.3961

_symmetry_space_group_name_H-M    "P 1"
_symmetry_int_tables_number       1

loop_
  _symmetry_equiv_pos_as_xyz
  'x, y, z'

loop_
  _atom_site_label
  _atom_site_occupancy
  _atom_site_fract_x
  _atom_site_fract_y
  _atom_site_fract_z
  _atom_site_thermal_displace_type
  _atom_site_B_iso_or_equiv
  _atom_site_type_symbol
  B1       1.0000 0.05430  0.42500  0.25000  Biso   1.000  B 
  B2       1.0000 0.57500  0.94600  0.75000  Biso   1.000  B 
  H1       1.0000 0.23800  0.40200  0.09010  Biso   1.000  H 
  H2       1.0000 0.82700  0.21100  0.25000  Biso   1.000  H 
  H3       1.0000 0.88700  0.69700  0.25000  Biso   1.000  H 
  H4       1.0000 0.23800  0.40200  0.41000  Biso   1.000  H 
  H5       1.0000 0.59800  0.76200  0.59000  Biso   1.000  H 
  H6       1.0000 0.30300  0.11300  0.75000  Biso   1.000  H 
  H7       1.0000 0.78900  0.17300  0.75000  Biso   1.000  H 
  H8       1.0000 0.59800  0.76200  0.91000  Biso   1.000  H 
  Li1      1.0000 0.06090  0.93900  0.00000  Biso   1.000  Li
  Li2      1.0000 0.06090  0.93900  0.50000  Biso   1.000  Li
