data_image0
_cell_length_a       5.63829
_cell_length_b       5.71531
_cell_length_c       6.78661
_cell_angle_alpha    94.3715
_cell_angle_beta     98.8895
_cell_angle_gamma    60.4448

_symmetry_space_group_name_H-M    "P 1"
_symmetry_int_tables_number       1

loop_
  _symmetry_equiv_pos_as_xyz
  'x, y, z'

loop_
  _atom_site_label
  _atom_site_occupancy
  _atom_site_fract_x
  _atom_site_fract_y
  _atom_site_fract_z
  _atom_site_thermal_displace_type
  _atom_site_B_iso_or_equiv
  _atom_site_type_symbol
  C1       1.0000 0.66800  0.66500  0.25000  Biso   1.000  C 
  C2       1.0000 0.33200  0.33500  0.75000  Biso   1.000  C 
  K1       1.0000 0.00000  0.00000  0.00000  Biso   1.000  K 
  K2       1.0000 0.33400  0.33100  0.25000  Biso   1.000  K 
  K3       1.0000 0.00000  0.00000  0.50000  Biso   1.000  K 
  K4       1.0000 0.66600  0.66900  0.75000  Biso   1.000  K 
  O1       1.0000 0.78300  0.79500  0.19800  Biso   1.000  O 
  O2       1.0000 0.79800  0.40300  0.25000  Biso   1.000  O 
  O3       1.0000 0.42200  0.79500  0.30200  Biso   1.000  O 
  O4       1.0000 0.57800  0.20500  0.69800  Biso   1.000  O 
  O5       1.0000 0.20200  0.59700  0.75000  Biso   1.000  O 
  O6       1.0000 0.21700  0.20500  0.80200  Biso   1.000  O 
