data_image0
_cell_length_a       5.71421
_cell_length_b       5.71421
_cell_length_c       5.71421
_cell_angle_alpha    120
_cell_angle_beta     90
_cell_angle_gamma    120

_symmetry_space_group_name_H-M    "P 1"
_symmetry_int_tables_number       1

loop_
  _symmetry_equiv_pos_as_xyz
  'x, y, z'

loop_
  _atom_site_label
  _atom_site_occupancy
  _atom_site_fract_x
  _atom_site_fract_y
  _atom_site_fract_z
  _atom_site_thermal_displace_type
  _atom_site_B_iso_or_equiv
  _atom_site_type_symbol
  Al1      1.0000 0.50000  0.00000  0.00000  Biso   1.000  Al
  Al2      1.0000 0.50000  0.00000  0.50000  Biso   1.000  Al
  Al3      1.0000 0.00000  0.50000  0.50000  Biso   1.000  Al
  Al4      1.0000 0.50000  0.50000  0.50000  Biso   1.000  Al
  Mg1      1.0000 0.87500  0.75000  0.12500  Biso   1.000  Mg
  Mg2      1.0000 0.12500  0.25000  0.87500  Biso   1.000  Mg
  O1       1.0000 0.28900  0.02610  0.26300  Biso   1.000  O 
  O2       1.0000 0.73700  0.02610  0.26300  Biso   1.000  O 
  O3       1.0000 0.73700  0.47400  0.26300  Biso   1.000  O 
  O4       1.0000 0.26300  0.52600  0.28900  Biso   1.000  O 
  O5       1.0000 0.73700  0.47400  0.71100  Biso   1.000  O 
  O6       1.0000 0.26300  0.52600  0.73700  Biso   1.000  O 
  O7       1.0000 0.26300  0.97400  0.73700  Biso   1.000  O 
  O8       1.0000 0.71100  0.97400  0.73700  Biso   1.000  O 
