data_image0
_cell_length_a       5.47744
_cell_length_b       5.47731
_cell_length_c       12.4856
_cell_angle_alpha    90
_cell_angle_beta     90
_cell_angle_gamma    120.001

_symmetry_space_group_name_H-M    "P 1"
_symmetry_int_tables_number       1

loop_
  _symmetry_equiv_pos_as_xyz
  'x, y, z'

loop_
  _atom_site_label
  _atom_site_occupancy
  _atom_site_fract_x
  _atom_site_fract_y
  _atom_site_fract_z
  _atom_site_thermal_displace_type
  _atom_site_B_iso_or_equiv
  _atom_site_type_symbol
  K1       1.0000 0.33300  0.66700  0.08830  Biso   1.000  K 
  K2       1.0000 0.33300  0.66700  0.41200  Biso   1.000  K 
  K3       1.0000 0.66700  0.33300  0.58800  Biso   1.000  K 
  K4       1.0000 0.66700  0.33300  0.91200  Biso   1.000  K 
  Tl1      1.0000 0.00000  0.00001  0.25000  Biso   1.000  Tl
  Tl2      1.0000 0.66700  0.33300  0.25000  Biso   1.000  Tl
  Tl3      1.0000 0.00000  0.00000  0.75000  Biso   1.000  Tl
  Tl4      1.0000 0.33300  0.66700  0.75000  Biso   1.000  Tl
