data_image0
_cell_length_a       4.66767
_cell_length_b       8.16726
_cell_length_c       8.16726
_cell_angle_alpha    112.928
_cell_angle_beta     94.9697
_cell_angle_gamma    94.9697

_symmetry_space_group_name_H-M    "P 1"
_symmetry_int_tables_number       1

loop_
  _symmetry_equiv_pos_as_xyz
  'x, y, z'

loop_
  _atom_site_label
  _atom_site_occupancy
  _atom_site_fract_x
  _atom_site_fract_y
  _atom_site_fract_z
  _atom_site_thermal_displace_type
  _atom_site_B_iso_or_equiv
  _atom_site_type_symbol
  F1       1.0000 0.87600  0.22300  0.02830  Biso   1.000  F 
  F2       1.0000 0.63600  0.68900  0.07120  Biso   1.000  F 
  F3       1.0000 0.39000  0.12400  0.12400  Biso   1.000  F 
  F4       1.0000 0.13400  0.56800  0.16900  Biso   1.000  F 
  F5       1.0000 0.87600  0.02830  0.22300  Biso   1.000  F 
  F6       1.0000 0.62700  0.48800  0.27600  Biso   1.000  F 
  F7       1.0000 0.36400  0.92900  0.31100  Biso   1.000  F 
  F8       1.0000 0.12100  0.36500  0.36500  Biso   1.000  F 
  F9       1.0000 0.86600  0.83100  0.43200  Biso   1.000  F 
  F10      1.0000 0.62700  0.27600  0.48800  Biso   1.000  F 
  F11      1.0000 0.37300  0.72400  0.51200  Biso   1.000  F 
  F12      1.0000 0.13400  0.16900  0.56800  Biso   1.000  F 
  F13      1.0000 0.87900  0.63500  0.63500  Biso   1.000  F 
  F14      1.0000 0.63600  0.07120  0.68900  Biso   1.000  F 
  F15      1.0000 0.37300  0.51200  0.72400  Biso   1.000  F 
  F16      1.0000 0.12400  0.97200  0.77700  Biso   1.000  F 
  F17      1.0000 0.86600  0.43200  0.83100  Biso   1.000  F 
  F18      1.0000 0.61000  0.87600  0.87600  Biso   1.000  F 
  F19      1.0000 0.36400  0.31100  0.92900  Biso   1.000  F 
  F20      1.0000 0.12400  0.77700  0.97200  Biso   1.000  F 
  Nb1      1.0000 0.00000  0.78700  0.21300  Biso   1.000  Nb
  Nb2      1.0000 0.72500  0.27200  0.27200  Biso   1.000  Nb
  Nb3      1.0000 0.27500  0.72800  0.72800  Biso   1.000  Nb
  Nb4      1.0000 0.00000  0.21300  0.78700  Biso   1.000  Nb
