data_image0
_cell_length_a       5.41504
_cell_length_b       4.75209
_cell_length_c       11.6499
_cell_angle_alpha    90
_cell_angle_beta     90
_cell_angle_gamma    90

_symmetry_space_group_name_H-M    "P 1"
_symmetry_int_tables_number       1

loop_
  _symmetry_equiv_pos_as_xyz
  'x, y, z'

loop_
  _atom_site_label
  _atom_site_occupancy
  _atom_site_fract_x
  _atom_site_fract_y
  _atom_site_fract_z
  _atom_site_thermal_displace_type
  _atom_site_B_iso_or_equiv
  _atom_site_type_symbol
  O1       1.0000 0.35100  0.83200  0.41200  Biso   1.000  O 
  O2       1.0000 0.64900  0.16800  0.91200  Biso   1.000  O 
  O3       1.0000 0.14900  0.33200  0.91200  Biso   1.000  O 
  O4       1.0000 0.85100  0.66800  0.41200  Biso   1.000  O 
  O5       1.0000 0.07640  0.18900  0.31400  Biso   1.000  O 
  O6       1.0000 0.92400  0.81100  0.81400  Biso   1.000  O 
  O7       1.0000 0.42400  0.68900  0.81400  Biso   1.000  O 
  O8       1.0000 0.57600  0.31100  0.31400  Biso   1.000  O 
  O9       1.0000 0.17100  0.69000  0.19200  Biso   1.000  O 
  O10      1.0000 0.82900  0.31000  0.69200  Biso   1.000  O 
  O11      1.0000 0.32900  0.19000  0.69200  Biso   1.000  O 
  O12      1.0000 0.67100  0.81000  0.19200  Biso   1.000  O 
  O13      1.0000 0.31900  0.16000  0.09840  Biso   1.000  O 
  O14      1.0000 0.68100  0.84000  0.59800  Biso   1.000  O 
  O15      1.0000 0.18100  0.66000  0.59800  Biso   1.000  O 
  O16      1.0000 0.81900  0.34000  0.09840  Biso   1.000  O 
  Sb1      1.0000 0.37800  0.99800  0.25300  Biso   1.000  Sb
  Sb2      1.0000 0.62200  0.00246  0.75300  Biso   1.000  Sb
  Sb3      1.0000 0.12200  0.49800  0.75300  Biso   1.000  Sb
  Sb4      1.0000 0.87800  0.50200  0.25300  Biso   1.000  Sb
  Sb5      1.0000 0.98000  0.02080  0.00556  Biso   1.000  Sb
  Sb6      1.0000 0.02000  0.97900  0.50600  Biso   1.000  Sb
  Sb7      1.0000 0.52000  0.52100  0.50600  Biso   1.000  Sb
  Sb8      1.0000 0.48000  0.47900  0.00556  Biso   1.000  Sb
