data_image0
_cell_length_a       3.50465
_cell_length_b       5.77568
_cell_length_c       5.77568
_cell_angle_alpha    115.694
_cell_angle_beta     90
_cell_angle_gamma    90

_symmetry_space_group_name_H-M    "P 1"
_symmetry_int_tables_number       1

loop_
  _symmetry_equiv_pos_as_xyz
  'x, y, z'

loop_
  _atom_site_label
  _atom_site_occupancy
  _atom_site_fract_x
  _atom_site_fract_y
  _atom_site_fract_z
  _atom_site_thermal_displace_type
  _atom_site_B_iso_or_equiv
  _atom_site_type_symbol
  Na1      1.0000 0.50000  0.00000  0.50000  Biso   1.000  Na
  Na2      1.0000 0.50000  0.50000  0.00000  Biso   1.000  Na
  O1       1.0000 0.00000  0.80100  0.19900  Biso   1.000  O 
  O2       1.0000 0.50000  0.21400  0.21400  Biso   1.000  O 
  O3       1.0000 0.50000  0.78600  0.78600  Biso   1.000  O 
  O4       1.0000 0.00000  0.19900  0.80100  Biso   1.000  O 
  U1       1.0000 0.00000  0.00000  0.00000  Biso   1.000  U 
