data_image0
_cell_length_a       3.31736
_cell_length_b       3.35192
_cell_length_c       5.73535
_cell_angle_alpha    73.0093
_cell_angle_beta     90
_cell_angle_gamma    90

_symmetry_space_group_name_H-M    "P 1"
_symmetry_int_tables_number       1

loop_
  _symmetry_equiv_pos_as_xyz
  'x, y, z'

loop_
  _atom_site_label
  _atom_site_occupancy
  _atom_site_fract_x
  _atom_site_fract_y
  _atom_site_fract_z
  _atom_site_thermal_displace_type
  _atom_site_B_iso_or_equiv
  _atom_site_type_symbol
  H1       1.0000 0.75000  0.45900  0.08240  Biso   1.000  H 
  H2       1.0000 0.25000  0.54100  0.91800  Biso   1.000  H 
  Na1      1.0000 0.25000  0.84000  0.32000  Biso   1.000  Na
  Na2      1.0000 0.75000  0.16000  0.68000  Biso   1.000  Na
  O1       1.0000 0.75000  0.37000  0.26000  Biso   1.000  O 
  O2       1.0000 0.25000  0.63000  0.74000  Biso   1.000  O 
