data_image0
_cell_length_a       9.69387
_cell_length_b       9.69387
_cell_length_c       14.4456
_cell_angle_alpha    95.0128
_cell_angle_beta     105.253
_cell_angle_gamma    118.539

_symmetry_space_group_name_H-M    "P 1"
_symmetry_int_tables_number       1

loop_
  _symmetry_equiv_pos_as_xyz
  'x, y, z'

loop_
  _atom_site_label
  _atom_site_occupancy
  _atom_site_fract_x
  _atom_site_fract_y
  _atom_site_fract_z
  _atom_site_thermal_displace_type
  _atom_site_B_iso_or_equiv
  _atom_site_type_symbol
  Cl1      1.0000 0.24000  0.73800  0.02390  Biso   1.000  Cl
  Cl2      1.0000 0.67000  0.86300  0.03880  Biso   1.000  Cl
  Cl3      1.0000 0.21400  0.35800  0.06750  Biso   1.000  Cl
  Cl4      1.0000 0.61700  0.48700  0.12600  Biso   1.000  Cl
  Cl5      1.0000 0.11900  0.98700  0.12900  Biso   1.000  Cl
  Cl6      1.0000 0.56400  0.12300  0.18800  Biso   1.000  Cl
  Cl7      1.0000 0.06690  0.62100  0.19300  Biso   1.000  Cl
  Cl8      1.0000 0.47000  0.75200  0.24500  Biso   1.000  Cl
  Cl9      1.0000 0.00648  0.22500  0.25500  Biso   1.000  Cl
  Cl10     1.0000 0.92800  0.87400  0.30700  Biso   1.000  Cl
  Cl11     1.0000 0.43500  0.37500  0.31200  Biso   1.000  Cl
  Cl12     1.0000 0.35700  0.99000  0.37100  Biso   1.000  Cl
  Cl13     1.0000 0.86200  0.49100  0.37400  Biso   1.000  Cl
  Cl14     1.0000 0.79100  0.14600  0.43200  Biso   1.000  Cl
  Cl15     1.0000 0.32400  0.63100  0.46100  Biso   1.000  Cl
  Cl16     1.0000 0.21400  0.21600  0.47600  Biso   1.000  Cl
  Cl17     1.0000 0.78600  0.78400  0.52400  Biso   1.000  Cl
  Cl18     1.0000 0.67600  0.36900  0.53900  Biso   1.000  Cl
  Cl19     1.0000 0.20900  0.85400  0.56800  Biso   1.000  Cl
  Cl20     1.0000 0.13800  0.50900  0.62600  Biso   1.000  Cl
  Cl21     1.0000 0.64300  0.01040  0.62900  Biso   1.000  Cl
  Cl22     1.0000 0.56500  0.62500  0.68800  Biso   1.000  Cl
  Cl23     1.0000 0.07200  0.12600  0.69300  Biso   1.000  Cl
  Cl24     1.0000 0.99400  0.77500  0.74500  Biso   1.000  Cl
  Cl25     1.0000 0.53000  0.24800  0.75500  Biso   1.000  Cl
  Cl26     1.0000 0.93300  0.37900  0.80700  Biso   1.000  Cl
  Cl27     1.0000 0.43600  0.87700  0.81200  Biso   1.000  Cl
  Cl28     1.0000 0.88100  0.01340  0.87100  Biso   1.000  Cl
  Cl29     1.0000 0.38300  0.51300  0.87400  Biso   1.000  Cl
  Cl30     1.0000 0.78600  0.64200  0.93200  Biso   1.000  Cl
  Cl31     1.0000 0.33000  0.13700  0.96100  Biso   1.000  Cl
  Cl32     1.0000 0.76000  0.26200  0.97600  Biso   1.000  Cl
  Se1      1.0000 0.38100  0.26300  0.11200  Biso   1.000  Se
  Se2      1.0000 0.29400  0.83300  0.18300  Biso   1.000  Se
  Se3      1.0000 0.15000  0.11100  0.31700  Biso   1.000  Se
  Se4      1.0000 0.65100  0.26900  0.38800  Biso   1.000  Se
  Se5      1.0000 0.34900  0.73100  0.61200  Biso   1.000  Se
  Se6      1.0000 0.85000  0.88900  0.68300  Biso   1.000  Se
  Se7      1.0000 0.70600  0.16700  0.81700  Biso   1.000  Se
  Se8      1.0000 0.61900  0.73700  0.88800  Biso   1.000  Se
