data_image0
_cell_length_a       7.6396
_cell_length_b       7.6396
_cell_length_c       7.6396
_cell_angle_alpha    117.556
_cell_angle_beta     94.2881
_cell_angle_gamma    117.556

_symmetry_space_group_name_H-M    "P 1"
_symmetry_int_tables_number       1

loop_
  _symmetry_equiv_pos_as_xyz
  'x, y, z'

loop_
  _atom_site_label
  _atom_site_occupancy
  _atom_site_fract_x
  _atom_site_fract_y
  _atom_site_fract_z
  _atom_site_thermal_displace_type
  _atom_site_B_iso_or_equiv
  _atom_site_type_symbol
  Be1      1.0000 0.75000  0.50000  0.25000  Biso   1.000  Be
  Be2      1.0000 0.25000  0.50000  0.75000  Biso   1.000  Be
  H1       1.0000 0.41200  0.15100  0.00691  Biso   1.000  H 
  H2       1.0000 0.49300  0.84900  0.08820  Biso   1.000  H 
  H3       1.0000 0.99300  0.40500  0.14400  Biso   1.000  H 
  H4       1.0000 0.85600  0.84900  0.26100  Biso   1.000  H 
  H5       1.0000 0.10200  0.69100  0.32900  Biso   1.000  H 
  H6       1.0000 0.67100  0.77300  0.36300  Biso   1.000  H 
  H7       1.0000 0.17100  0.30900  0.39800  Biso   1.000  H 
  H8       1.0000 0.63700  0.30900  0.41000  Biso   1.000  H 
  H9       1.0000 0.35600  0.59500  0.50700  Biso   1.000  H 
  H10      1.0000 0.73900  0.59500  0.58800  Biso   1.000  H 
  H11      1.0000 0.23900  0.15100  0.64400  Biso   1.000  H 
  H12      1.0000 0.91200  0.40500  0.76100  Biso   1.000  H 
  H13      1.0000 0.13700  0.22700  0.82900  Biso   1.000  H 
  H14      1.0000 0.08960  0.69100  0.86300  Biso   1.000  H 
  H15      1.0000 0.59000  0.22700  0.89800  Biso   1.000  H 
  H16      1.0000 0.60200  0.77300  0.91000  Biso   1.000  H 
  O1       1.0000 0.04890  0.21600  0.00633  Biso   1.000  O 
  O2       1.0000 0.56500  0.25500  0.03300  Biso   1.000  O 
  O3       1.0000 0.99400  0.04260  0.20900  Biso   1.000  O 
  O4       1.0000 0.96700  0.53200  0.22200  Biso   1.000  O 
  O5       1.0000 0.77800  0.74500  0.30900  Biso   1.000  O 
  O6       1.0000 0.54900  0.04260  0.33300  Biso   1.000  O 
  O7       1.0000 0.69100  0.46800  0.43500  Biso   1.000  O 
  O8       1.0000 0.49400  0.78400  0.45100  Biso   1.000  O 
  O9       1.0000 0.29100  0.95700  0.50600  Biso   1.000  O 
  O10      1.0000 0.27800  0.46800  0.53300  Biso   1.000  O 
  O11      1.0000 0.66700  0.21600  0.70900  Biso   1.000  O 
  O12      1.0000 0.19100  0.25500  0.72200  Biso   1.000  O 
  O13      1.0000 0.06450  0.53200  0.80900  Biso   1.000  O 
  O14      1.0000 0.79100  0.78400  0.83300  Biso   1.000  O 
  O15      1.0000 0.46700  0.74500  0.93500  Biso   1.000  O 
  O16      1.0000 0.16700  0.95700  0.95100  Biso   1.000  O 
  S1       1.0000 0.00000  0.00000  0.00000  Biso   1.000  S 
  S2       1.0000 0.50000  0.00000  0.50000  Biso   1.000  S 
