data_image0
_cell_length_a       3.76879
_cell_length_b       6.9135
_cell_length_c       15.7231
_cell_angle_alpha    90
_cell_angle_beta     90
_cell_angle_gamma    90

_symmetry_space_group_name_H-M    "P 1"
_symmetry_int_tables_number       1

loop_
  _symmetry_equiv_pos_as_xyz
  'x, y, z'

loop_
  _atom_site_label
  _atom_site_occupancy
  _atom_site_fract_x
  _atom_site_fract_y
  _atom_site_fract_z
  _atom_site_thermal_displace_type
  _atom_site_B_iso_or_equiv
  _atom_site_type_symbol
  I1       1.0000 0.00000  0.88300  0.10800  Biso   1.000  I 
  I2       1.0000 0.50000  0.38300  0.14400  Biso   1.000  I 
  I3       1.0000 0.50000  0.77700  0.36300  Biso   1.000  I 
  I4       1.0000 0.00000  0.27500  0.39900  Biso   1.000  I 
  I5       1.0000 0.50000  0.11700  0.60800  Biso   1.000  I 
  I6       1.0000 0.00000  0.61700  0.64400  Biso   1.000  I 
  I7       1.0000 0.00000  0.22300  0.86300  Biso   1.000  I 
  I8       1.0000 0.50000  0.72500  0.89900  Biso   1.000  I 
  Zr1      1.0000 0.50000  0.11600  0.00039  Biso   1.000  Zr
  Zr2      1.0000 0.00000  0.49200  0.00703  Biso   1.000  Zr
  Zr3      1.0000 0.00000  0.88400  0.50000  Biso   1.000  Zr
  Zr4      1.0000 0.50000  0.50800  0.50700  Biso   1.000  Zr
