data_image0
_cell_length_a       8.82062
_cell_length_b       8.81967
_cell_length_c       8.15707
_cell_angle_alpha    90
_cell_angle_beta     90
_cell_angle_gamma    120.041

_symmetry_space_group_name_H-M    "P 1"
_symmetry_int_tables_number       1

loop_
  _symmetry_equiv_pos_as_xyz
  'x, y, z'

loop_
  _atom_site_label
  _atom_site_occupancy
  _atom_site_fract_x
  _atom_site_fract_y
  _atom_site_fract_z
  _atom_site_thermal_displace_type
  _atom_site_B_iso_or_equiv
  _atom_site_type_symbol
  Al1      1.0000 0.34300  0.02110  0.20200  Biso   1.000  Al
  Al2      1.0000 0.97900  0.32200  0.20200  Biso   1.000  Al
  Al3      1.0000 0.02090  0.67800  0.70200  Biso   1.000  Al
  Al4      1.0000 0.65700  0.97900  0.70200  Biso   1.000  Al
  Al5      1.0000 0.67800  0.65700  0.20200  Biso   1.000  Al
  Al6      1.0000 0.32200  0.34300  0.70200  Biso   1.000  Al
  Al7      1.0000 0.33200  0.02260  0.80700  Biso   1.000  Al
  Al8      1.0000 0.97800  0.31000  0.80600  Biso   1.000  Al
  Al9      1.0000 0.02220  0.69000  0.30600  Biso   1.000  Al
  Al10     1.0000 0.66800  0.97700  0.30700  Biso   1.000  Al
  Al11     1.0000 0.69000  0.66800  0.80700  Biso   1.000  Al
  Al12     1.0000 0.31000  0.33200  0.30700  Biso   1.000  Al
  O1       1.0000 0.36700  0.10900  0.00488  Biso   1.000  O 
  O2       1.0000 0.89100  0.25800  0.00464  Biso   1.000  O 
  O3       1.0000 0.10900  0.74200  0.50500  Biso   1.000  O 
  O4       1.0000 0.63300  0.89100  0.50500  Biso   1.000  O 
  O5       1.0000 0.74200  0.63300  0.00496  Biso   1.000  O 
  O6       1.0000 0.25800  0.36700  0.50500  Biso   1.000  O 
  O7       1.0000 0.10500  0.88000  0.80000  Biso   1.000  O 
  O8       1.0000 0.12000  0.22600  0.80000  Biso   1.000  O 
  O9       1.0000 0.88000  0.77400  0.30000  Biso   1.000  O 
  O10      1.0000 0.89500  0.12000  0.30000  Biso   1.000  O 
  O11      1.0000 0.77400  0.89500  0.80000  Biso   1.000  O 
  O12      1.0000 0.22600  0.10500  0.30000  Biso   1.000  O 
  O13      1.0000 0.09450  0.53800  0.77300  Biso   1.000  O 
  O14      1.0000 0.46200  0.55700  0.77400  Biso   1.000  O 
  O15      1.0000 0.53800  0.44300  0.27400  Biso   1.000  O 
  O16      1.0000 0.90600  0.46200  0.27300  Biso   1.000  O 
  O17      1.0000 0.44400  0.90600  0.77300  Biso   1.000  O 
  O18      1.0000 0.55600  0.09420  0.27300  Biso   1.000  O 
  O19      1.0000 0.58200  0.79000  0.18300  Biso   1.000  O 
  O20      1.0000 0.20700  0.41800  0.18300  Biso   1.000  O 
  O21      1.0000 0.79000  0.20700  0.68300  Biso   1.000  O 
  O22      1.0000 0.21000  0.79300  0.18300  Biso   1.000  O 
  O23      1.0000 0.79300  0.58200  0.68300  Biso   1.000  O 
  O24      1.0000 0.41800  0.21000  0.68300  Biso   1.000  O 
  Sr1      1.0000 0.66700  0.33300  0.01650  Biso   1.000  Sr
  Sr2      1.0000 0.33300  0.66700  0.51600  Biso   1.000  Sr
  Sr3      1.0000 0.66700  0.33300  0.49100  Biso   1.000  Sr
  Sr4      1.0000 0.33300  0.66700  0.99100  Biso   1.000  Sr
  Sr5      1.0000 0.00001  1.00000  0.52800  Biso   1.000  Sr
  Sr6      1.0000 0.00000  0.00002  0.02850  Biso   1.000  Sr
