data_image0
_cell_length_a       7.70204
_cell_length_b       9.20045
_cell_length_c       4.56679
_cell_angle_alpha    90
_cell_angle_beta     90
_cell_angle_gamma    90

_symmetry_space_group_name_H-M    "P 1"
_symmetry_int_tables_number       1

loop_
  _symmetry_equiv_pos_as_xyz
  'x, y, z'

loop_
  _atom_site_label
  _atom_site_occupancy
  _atom_site_fract_x
  _atom_site_fract_y
  _atom_site_fract_z
  _atom_site_thermal_displace_type
  _atom_site_B_iso_or_equiv
  _atom_site_type_symbol
  Cl1      1.0000 0.85800  0.07770  0.25000  Biso   1.000  Cl
  Cl2      1.0000 0.35800  0.42200  0.25000  Biso   1.000  Cl
  Cl3      1.0000 0.98400  0.65800  0.25000  Biso   1.000  Cl
  Cl4      1.0000 0.48400  0.84200  0.25000  Biso   1.000  Cl
  Cl5      1.0000 0.51600  0.15800  0.75000  Biso   1.000  Cl
  Cl6      1.0000 0.01570  0.34200  0.75000  Biso   1.000  Cl
  Cl7      1.0000 0.64200  0.57800  0.75000  Biso   1.000  Cl
  Cl8      1.0000 0.14200  0.92200  0.75000  Biso   1.000  Cl
  Pb1      1.0000 0.26500  0.09170  0.25000  Biso   1.000  Pb
  Pb2      1.0000 0.76500  0.40800  0.25000  Biso   1.000  Pb
  Pb3      1.0000 0.23500  0.59200  0.75000  Biso   1.000  Pb
  Pb4      1.0000 0.73500  0.90800  0.75000  Biso   1.000  Pb
