data_image0
_cell_length_a       9.40566
_cell_length_b       9.40566
_cell_length_c       3.39575
_cell_angle_alpha    90
_cell_angle_beta     90
_cell_angle_gamma    90

_symmetry_space_group_name_H-M    "P 1"
_symmetry_int_tables_number       1

loop_
  _symmetry_equiv_pos_as_xyz
  'x, y, z'

loop_
  _atom_site_label
  _atom_site_occupancy
  _atom_site_fract_x
  _atom_site_fract_y
  _atom_site_fract_z
  _atom_site_thermal_displace_type
  _atom_site_B_iso_or_equiv
  _atom_site_type_symbol
  Si1      1.0000 0.58600  0.08570  0.50000  Biso   1.000  Si
  Si2      1.0000 0.08570  0.41400  0.50000  Biso   1.000  Si
  Si3      1.0000 0.91400  0.58600  0.50000  Biso   1.000  Si
  Si4      1.0000 0.41400  0.91400  0.50000  Biso   1.000  Si
  Th1      1.0000 0.00000  0.00000  0.00000  Biso   1.000  Th
  Th2      1.0000 0.50000  0.50000  0.00000  Biso   1.000  Th
  Th3      1.0000 0.29400  0.20600  0.50000  Biso   1.000  Th
  Th4      1.0000 0.79400  0.29400  0.50000  Biso   1.000  Th
  Th5      1.0000 0.20600  0.70600  0.50000  Biso   1.000  Th
  Th6      1.0000 0.70600  0.79400  0.50000  Biso   1.000  Th
