data_image0
_cell_length_a       5.73227
_cell_length_b       5.73227
_cell_length_c       7.47784
_cell_angle_alpha    119.803
_cell_angle_beta     119.803
_cell_angle_gamma    33.1848

_symmetry_space_group_name_H-M    "P 1"
_symmetry_int_tables_number       1

loop_
  _symmetry_equiv_pos_as_xyz
  'x, y, z'

loop_
  _atom_site_label
  _atom_site_occupancy
  _atom_site_fract_x
  _atom_site_fract_y
  _atom_site_fract_z
  _atom_site_thermal_displace_type
  _atom_site_B_iso_or_equiv
  _atom_site_type_symbol
  Cl1      1.0000 0.44900  0.44900  0.18700  Biso   1.000  Cl
  Cl2      1.0000 0.55100  0.55100  0.81300  Biso   1.000  Cl
  H1       1.0000 0.83300  0.83300  0.31100  Biso   1.000  H 
  H2       1.0000 0.16700  0.16700  0.68900  Biso   1.000  H 
  Mg1      1.0000 0.14400  0.14400  0.31500  Biso   1.000  Mg
  Mg2      1.0000 0.85600  0.85600  0.68500  Biso   1.000  Mg
  O1       1.0000 0.77000  0.77000  0.36700  Biso   1.000  O 
  O2       1.0000 0.23000  0.23000  0.63300  Biso   1.000  O 
