data_image0
_cell_length_a       7.03145
_cell_length_b       7.28366
_cell_length_c       7.28366
_cell_angle_alpha    119.925
_cell_angle_beta     100.204
_cell_angle_gamma    100.204

_symmetry_space_group_name_H-M    "P 1"
_symmetry_int_tables_number       1

loop_
  _symmetry_equiv_pos_as_xyz
  'x, y, z'

loop_
  _atom_site_label
  _atom_site_occupancy
  _atom_site_fract_x
  _atom_site_fract_y
  _atom_site_fract_z
  _atom_site_thermal_displace_type
  _atom_site_B_iso_or_equiv
  _atom_site_type_symbol
  Bi1      1.0000 0.00000  0.83300  0.16700  Biso   1.000  Bi
  Bi2      1.0000 0.00000  0.16700  0.83300  Biso   1.000  Bi
  Br1      1.0000 0.74600  0.41400  0.06100  Biso   1.000  Br
  Br2      1.0000 0.24800  0.24400  0.24400  Biso   1.000  Br
  Br3      1.0000 0.74600  0.06100  0.41400  Biso   1.000  Br
  Br4      1.0000 0.25400  0.93900  0.58600  Biso   1.000  Br
  Br5      1.0000 0.75200  0.75600  0.75600  Biso   1.000  Br
  Br6      1.0000 0.25400  0.58600  0.93900  Biso   1.000  Br
