data_image0
_cell_length_a       5.59126
_cell_length_b       6.25031
_cell_length_c       9.7968
_cell_angle_alpha    90
_cell_angle_beta     90
_cell_angle_gamma    90

_symmetry_space_group_name_H-M    "P 1"
_symmetry_int_tables_number       1

loop_
  _symmetry_equiv_pos_as_xyz
  'x, y, z'

loop_
  _atom_site_label
  _atom_site_occupancy
  _atom_site_fract_x
  _atom_site_fract_y
  _atom_site_fract_z
  _atom_site_thermal_displace_type
  _atom_site_B_iso_or_equiv
  _atom_site_type_symbol
  H1       1.0000 0.15000  0.33600  0.18000  Biso   1.000  H 
  H2       1.0000 0.35000  0.83600  0.18000  Biso   1.000  H 
  H3       1.0000 0.65000  0.33600  0.32000  Biso   1.000  H 
  H4       1.0000 0.85000  0.83600  0.32000  Biso   1.000  H 
  H5       1.0000 0.15000  0.16400  0.68000  Biso   1.000  H 
  H6       1.0000 0.35000  0.66400  0.68000  Biso   1.000  H 
  H7       1.0000 0.65000  0.16400  0.82000  Biso   1.000  H 
  H8       1.0000 0.85000  0.66400  0.82000  Biso   1.000  H 
  O1       1.0000 0.18000  0.30200  0.08310  Biso   1.000  O 
  O2       1.0000 0.32000  0.80200  0.08310  Biso   1.000  O 
  O3       1.0000 0.65100  0.46700  0.16200  Biso   1.000  O 
  O4       1.0000 0.84900  0.96700  0.16200  Biso   1.000  O 
  O5       1.0000 0.15100  0.46700  0.33800  Biso   1.000  O 
  O6       1.0000 0.34900  0.96700  0.33800  Biso   1.000  O 
  O7       1.0000 0.68000  0.30200  0.41700  Biso   1.000  O 
  O8       1.0000 0.82000  0.80200  0.41700  Biso   1.000  O 
  O9       1.0000 0.18000  0.19800  0.58300  Biso   1.000  O 
  O10      1.0000 0.32000  0.69800  0.58300  Biso   1.000  O 
  O11      1.0000 0.65100  0.03320  0.66200  Biso   1.000  O 
  O12      1.0000 0.84900  0.53300  0.66200  Biso   1.000  O 
  O13      1.0000 0.15100  0.03320  0.83800  Biso   1.000  O 
  O14      1.0000 0.34900  0.53300  0.83800  Biso   1.000  O 
  O15      1.0000 0.68000  0.19800  0.91700  Biso   1.000  O 
  O16      1.0000 0.82000  0.69800  0.91700  Biso   1.000  O 
  U1       1.0000 0.00000  0.00000  0.00000  Biso   1.000  U 
  U2       1.0000 0.50000  0.50000  0.00000  Biso   1.000  U 
  U3       1.0000 0.50000  0.00000  0.50000  Biso   1.000  U 
  U4       1.0000 0.00000  0.50000  0.50000  Biso   1.000  U 
