data_image0
_cell_length_a       4.70715
_cell_length_b       5.47073
_cell_length_c       5.48123
_cell_angle_alpha    90
_cell_angle_beta     100.441
_cell_angle_gamma    90

_symmetry_space_group_name_H-M    "P 1"
_symmetry_int_tables_number       1

loop_
  _symmetry_equiv_pos_as_xyz
  'x, y, z'

loop_
  _atom_site_label
  _atom_site_occupancy
  _atom_site_fract_x
  _atom_site_fract_y
  _atom_site_fract_z
  _atom_site_thermal_displace_type
  _atom_site_B_iso_or_equiv
  _atom_site_type_symbol
  F1       1.0000 0.69400  0.83700  0.16000  Biso   1.000  F 
  F2       1.0000 0.24400  0.52300  0.16100  Biso   1.000  F 
  F3       1.0000 0.25600  0.02320  0.33900  Biso   1.000  F 
  F4       1.0000 0.80600  0.33700  0.34000  Biso   1.000  F 
  F5       1.0000 0.19400  0.66300  0.66000  Biso   1.000  F 
  F6       1.0000 0.74400  0.97700  0.66100  Biso   1.000  F 
  F7       1.0000 0.75600  0.47700  0.83900  Biso   1.000  F 
  F8       1.0000 0.30600  0.16300  0.84000  Biso   1.000  F 
  Xe1      1.0000 0.00000  0.00000  0.00000  Biso   1.000  Xe
  Xe2      1.0000 0.50000  0.50000  0.50000  Biso   1.000  Xe
