data_image0
_cell_length_a       3.70667
_cell_length_b       4.60115
_cell_length_c       6.33003
_cell_angle_alpha    104.715
_cell_angle_beta     90
_cell_angle_gamma    113.753

_symmetry_space_group_name_H-M    "P 1"
_symmetry_int_tables_number       1

loop_
  _symmetry_equiv_pos_as_xyz
  'x, y, z'

loop_
  _atom_site_label
  _atom_site_occupancy
  _atom_site_fract_x
  _atom_site_fract_y
  _atom_site_fract_z
  _atom_site_thermal_displace_type
  _atom_site_B_iso_or_equiv
  _atom_site_type_symbol
  Au1      1.0000 0.00000  0.00000  0.00000  Biso   1.000  Au
  Au2      1.0000 0.50000  0.00000  0.50000  Biso   1.000  Au
  Se1      1.0000 0.83700  0.67400  0.26800  Biso   1.000  Se
  Se2      1.0000 0.16300  0.32600  0.73200  Biso   1.000  Se
