data_image0
_cell_length_a       6.73796
_cell_length_b       7.82011
_cell_length_c       9.30205
_cell_angle_alpha    90
_cell_angle_beta     95.3374
_cell_angle_gamma    90

_symmetry_space_group_name_H-M    "P 1"
_symmetry_int_tables_number       1

loop_
  _symmetry_equiv_pos_as_xyz
  'x, y, z'

loop_
  _atom_site_label
  _atom_site_occupancy
  _atom_site_fract_x
  _atom_site_fract_y
  _atom_site_fract_z
  _atom_site_thermal_displace_type
  _atom_site_B_iso_or_equiv
  _atom_site_type_symbol
  Ba1      1.0000 0.74900  0.14500  0.10500  Biso   1.000  Ba
  Ba2      1.0000 0.21800  0.44900  0.18200  Biso   1.000  Ba
  Ba3      1.0000 0.28200  0.94900  0.31800  Biso   1.000  Ba
  Ba4      1.0000 0.75100  0.64500  0.39500  Biso   1.000  Ba
  Ba5      1.0000 0.24900  0.35500  0.60500  Biso   1.000  Ba
  Ba6      1.0000 0.71800  0.05060  0.68200  Biso   1.000  Ba
  Ba7      1.0000 0.78200  0.55100  0.81800  Biso   1.000  Ba
  Ba8      1.0000 0.25100  0.85500  0.89500  Biso   1.000  Ba
  H1       1.0000 0.21900  0.14900  0.02180  Biso   1.000  H 
  H2       1.0000 0.55500  0.76100  0.09080  Biso   1.000  H 
  H3       1.0000 0.68400  0.54100  0.11800  Biso   1.000  H 
  H4       1.0000 0.93400  0.72400  0.12000  Biso   1.000  H 
  H5       1.0000 0.56600  0.22400  0.38000  Biso   1.000  H 
  H6       1.0000 0.81600  0.04110  0.38200  Biso   1.000  H 
  H7       1.0000 0.94500  0.26100  0.40900  Biso   1.000  H 
  H8       1.0000 0.28100  0.64900  0.47800  Biso   1.000  H 
  H9       1.0000 0.71900  0.35100  0.52200  Biso   1.000  H 
  H10      1.0000 0.05540  0.73900  0.59100  Biso   1.000  H 
  H11      1.0000 0.18400  0.95900  0.61800  Biso   1.000  H 
  H12      1.0000 0.43400  0.77600  0.62000  Biso   1.000  H 
  H13      1.0000 0.06630  0.27600  0.88000  Biso   1.000  H 
  H14      1.0000 0.31600  0.45900  0.88200  Biso   1.000  H 
  H15      1.0000 0.44500  0.23900  0.90900  Biso   1.000  H 
  H16      1.0000 0.78100  0.85100  0.97800  Biso   1.000  H 
  O1       1.0000 0.34900  0.14000  0.08210  Biso   1.000  O 
  O2       1.0000 0.98900  0.83900  0.10500  Biso   1.000  O 
  O3       1.0000 0.82100  0.49600  0.11900  Biso   1.000  O 
  O4       1.0000 0.47500  0.70100  0.15800  Biso   1.000  O 
  O5       1.0000 0.02550  0.20100  0.34200  Biso   1.000  O 
  O6       1.0000 0.67900  0.99600  0.38100  Biso   1.000  O 
  O7       1.0000 0.51100  0.33900  0.39500  Biso   1.000  O 
  O8       1.0000 0.15100  0.64000  0.41800  Biso   1.000  O 
  O9       1.0000 0.84900  0.36000  0.58200  Biso   1.000  O 
  O10      1.0000 0.48900  0.66100  0.60500  Biso   1.000  O 
  O11      1.0000 0.32100  0.00419  0.61900  Biso   1.000  O 
  O12      1.0000 0.97500  0.79900  0.65800  Biso   1.000  O 
  O13      1.0000 0.52500  0.29900  0.84200  Biso   1.000  O 
  O14      1.0000 0.17900  0.50400  0.88100  Biso   1.000  O 
  O15      1.0000 0.01110  0.16100  0.89500  Biso   1.000  O 
  O16      1.0000 0.65100  0.86000  0.91800  Biso   1.000  O 
