data_image0
_cell_length_a       7.86644
_cell_length_b       10.6494
_cell_length_c       7.31939
_cell_angle_alpha    91.1507
_cell_angle_beta     116.128
_cell_angle_gamma    109.242

_symmetry_space_group_name_H-M    "P 1"
_symmetry_int_tables_number       1

loop_
  _symmetry_equiv_pos_as_xyz
  'x, y, z'

loop_
  _atom_site_label
  _atom_site_occupancy
  _atom_site_fract_x
  _atom_site_fract_y
  _atom_site_fract_z
  _atom_site_thermal_displace_type
  _atom_site_B_iso_or_equiv
  _atom_site_type_symbol
  I1       1.0000 0.81800  0.56600  0.07530  Biso   1.000  I 
  I2       1.0000 0.61600  0.84900  0.12000  Biso   1.000  I 
  I3       1.0000 0.18100  0.95600  0.23500  Biso   1.000  I 
  I4       1.0000 0.00890  0.25000  0.30900  Biso   1.000  I 
  I5       1.0000 0.58100  0.33000  0.45000  Biso   1.000  I 
  I6       1.0000 0.41900  0.67000  0.55000  Biso   1.000  I 
  I7       1.0000 0.99100  0.75000  0.69100  Biso   1.000  I 
  I8       1.0000 0.81900  0.04370  0.76500  Biso   1.000  I 
  I9       1.0000 0.38400  0.15100  0.88000  Biso   1.000  I 
  I10      1.0000 0.18200  0.43400  0.92500  Biso   1.000  I 
  Nb1      1.0000 0.22100  0.22200  0.10600  Biso   1.000  Nb
  Nb2      1.0000 0.77900  0.77800  0.89400  Biso   1.000  Nb
