data_image0
_cell_length_a       4.30062
_cell_length_b       7.17702
_cell_length_c       7.50557
_cell_angle_alpha    93.5338
_cell_angle_beta     106.648
_cell_angle_gamma    90

_symmetry_space_group_name_H-M    "P 1"
_symmetry_int_tables_number       1

loop_
  _symmetry_equiv_pos_as_xyz
  'x, y, z'

loop_
  _atom_site_label
  _atom_site_occupancy
  _atom_site_fract_x
  _atom_site_fract_y
  _atom_site_fract_z
  _atom_site_thermal_displace_type
  _atom_site_B_iso_or_equiv
  _atom_site_type_symbol
  K1       1.0000 0.63500  0.63000  0.26900  Biso   1.000  K 
  K2       1.0000 0.36500  0.37000  0.73100  Biso   1.000  K 
  Sb1      1.0000 0.05200  0.18100  0.10400  Biso   1.000  Sb
  Sb2      1.0000 0.68500  0.12900  0.37000  Biso   1.000  Sb
  Sb3      1.0000 0.31500  0.87100  0.63000  Biso   1.000  Sb
  Sb4      1.0000 0.94800  0.81900  0.89600  Biso   1.000  Sb
