data_image0
_cell_length_a       2.84213
_cell_length_b       3.89452
_cell_length_c       3.89452
_cell_angle_alpha    105.058
_cell_angle_beta     68.5992
_cell_angle_gamma    111.401

_symmetry_space_group_name_H-M    "P 1"
_symmetry_int_tables_number       1

loop_
  _symmetry_equiv_pos_as_xyz
  'x, y, z'

loop_
  _atom_site_label
  _atom_site_occupancy
  _atom_site_fract_x
  _atom_site_fract_y
  _atom_site_fract_z
  _atom_site_thermal_displace_type
  _atom_site_B_iso_or_equiv
  _atom_site_type_symbol
  B1       1.0000 0.65800  0.46200  0.14700  Biso   1.000  B 
  B2       1.0000 0.34200  0.14700  0.46200  Biso   1.000  B 
  B3       1.0000 0.65800  0.85300  0.53800  Biso   1.000  B 
  B4       1.0000 0.34200  0.53800  0.85300  Biso   1.000  B 
  Cr1      1.0000 0.00000  0.00000  0.00000  Biso   1.000  Cr
