data_image0
_cell_length_a       3.79232
_cell_length_b       6.39187
_cell_length_c       8.51906
_cell_angle_alpha    90
_cell_angle_beta     90
_cell_angle_gamma    72.7434

_symmetry_space_group_name_H-M    "P 1"
_symmetry_int_tables_number       1

loop_
  _symmetry_equiv_pos_as_xyz
  'x, y, z'

loop_
  _atom_site_label
  _atom_site_occupancy
  _atom_site_fract_x
  _atom_site_fract_y
  _atom_site_fract_z
  _atom_site_thermal_displace_type
  _atom_site_B_iso_or_equiv
  _atom_site_type_symbol
  Cl1      1.0000 0.15100  0.69800  0.06790  Biso   1.000  Cl
  Cl2      1.0000 0.41000  0.18100  0.25000  Biso   1.000  Cl
  Cl3      1.0000 0.15100  0.69800  0.43200  Biso   1.000  Cl
  Cl4      1.0000 0.84900  0.30200  0.56800  Biso   1.000  Cl
  Cl5      1.0000 0.59000  0.81900  0.75000  Biso   1.000  Cl
  Cl6      1.0000 0.84900  0.30200  0.93200  Biso   1.000  Cl
  Dy1      1.0000 0.75800  0.48400  0.25000  Biso   1.000  Dy
  Dy2      1.0000 0.24200  0.51600  0.75000  Biso   1.000  Dy
