data_image0
_cell_length_a       6.55271
_cell_length_b       6.55271
_cell_length_c       17.1972
_cell_angle_alpha    90
_cell_angle_beta     90
_cell_angle_gamma    120

_symmetry_space_group_name_H-M    "P 1"
_symmetry_int_tables_number       1

loop_
  _symmetry_equiv_pos_as_xyz
  'x, y, z'

loop_
  _atom_site_label
  _atom_site_occupancy
  _atom_site_fract_x
  _atom_site_fract_y
  _atom_site_fract_z
  _atom_site_thermal_displace_type
  _atom_site_B_iso_or_equiv
  _atom_site_type_symbol
  Al1      1.0000 0.69400  0.69600  0.35100  Biso   1.000  Al
  Al2      1.0000 0.30600  0.30400  0.85100  Biso   1.000  Al
  Al3      1.0000 0.30400  0.99800  0.68400  Biso   1.000  Al
  Al4      1.0000 0.00243  0.30600  0.01730  Biso   1.000  Al
  Al5      1.0000 0.99800  0.69400  0.51700  Biso   1.000  Al
  Al6      1.0000 0.69600  0.00243  0.18400  Biso   1.000  Al
  Al7      1.0000 0.35000  0.33900  0.21600  Biso   1.000  Al
  Al8      1.0000 0.65000  0.66100  0.71600  Biso   1.000  Al
  Al9      1.0000 0.66100  0.01060  0.54900  Biso   1.000  Al
  Al10     1.0000 0.98900  0.65000  0.88200  Biso   1.000  Al
  Al11     1.0000 0.01060  0.35000  0.38200  Biso   1.000  Al
  Al12     1.0000 0.33900  0.98900  0.04910  Biso   1.000  Al
  S1       1.0000 0.70900  0.66300  0.20700  Biso   1.000  S 
  S2       1.0000 0.29100  0.33700  0.70700  Biso   1.000  S 
  S3       1.0000 0.33700  0.04630  0.54000  Biso   1.000  S 
  S4       1.0000 0.95400  0.29100  0.87400  Biso   1.000  S 
  S5       1.0000 0.04630  0.70900  0.37400  Biso   1.000  S 
  S6       1.0000 0.66300  0.95400  0.04040  Biso   1.000  S 
  S7       1.0000 0.04240  0.34900  0.16200  Biso   1.000  S 
  S8       1.0000 0.95800  0.65100  0.66200  Biso   1.000  S 
  S9       1.0000 0.65100  0.69400  0.49500  Biso   1.000  S 
  S10      1.0000 0.30600  0.95800  0.82900  Biso   1.000  S 
  S11      1.0000 0.69400  0.04240  0.32900  Biso   1.000  S 
  S12      1.0000 0.34900  0.30600  0.99500  Biso   1.000  S 
  S13      1.0000 0.34000  0.33600  0.34800  Biso   1.000  S 
  S14      1.0000 0.66000  0.66400  0.84800  Biso   1.000  S 
  S15      1.0000 0.66400  0.00420  0.68200  Biso   1.000  S 
  S16      1.0000 0.99600  0.66000  0.01510  Biso   1.000  S 
  S17      1.0000 0.00420  0.34000  0.51500  Biso   1.000  S 
  S18      1.0000 0.33600  0.99600  0.18200  Biso   1.000  S 
