data_image0
_cell_length_a       7.99553
_cell_length_b       7.99557
_cell_length_c       4.5062
_cell_angle_alpha    90
_cell_angle_beta     90
_cell_angle_gamma    119.998

_symmetry_space_group_name_H-M    "P 1"
_symmetry_int_tables_number       1

loop_
  _symmetry_equiv_pos_as_xyz
  'x, y, z'

loop_
  _atom_site_label
  _atom_site_occupancy
  _atom_site_fract_x
  _atom_site_fract_y
  _atom_site_fract_z
  _atom_site_thermal_displace_type
  _atom_site_B_iso_or_equiv
  _atom_site_type_symbol
  Br1      1.0000 0.70200  0.08630  0.25000  Biso   1.000  Br
  Br2      1.0000 0.38500  0.29800  0.25000  Biso   1.000  Br
  Br3      1.0000 0.91400  0.61500  0.25000  Biso   1.000  Br
  Br4      1.0000 0.08630  0.38500  0.75000  Biso   1.000  Br
  Br5      1.0000 0.61500  0.70200  0.75000  Biso   1.000  Br
  Br6      1.0000 0.29800  0.91400  0.75000  Biso   1.000  Br
  La1      1.0000 0.33300  0.66700  0.25000  Biso   1.000  La
  La2      1.0000 0.66700  0.33300  0.75000  Biso   1.000  La
