data_image0
_cell_length_a       8.75803
_cell_length_b       8.75803
_cell_length_c       8.75803
_cell_angle_alpha    109.471
_cell_angle_beta     109.471
_cell_angle_gamma    109.471

_symmetry_space_group_name_H-M    "P 1"
_symmetry_int_tables_number       1

loop_
  _symmetry_equiv_pos_as_xyz
  'x, y, z'

loop_
  _atom_site_label
  _atom_site_occupancy
  _atom_site_fract_x
  _atom_site_fract_y
  _atom_site_fract_z
  _atom_site_thermal_displace_type
  _atom_site_B_iso_or_equiv
  _atom_site_type_symbol
  In1      1.0000 0.49800  0.49800  0.49800  Biso   1.000  In
  In2      1.0000 0.50000  0.00000  0.00228  Biso   1.000  In
  In3      1.0000 0.00228  0.50000  0.00000  Biso   1.000  In
  In4      1.0000 0.00000  0.00228  0.50000  Biso   1.000  In
  In5      1.0000 0.25000  0.21600  0.96600  Biso   1.000  In
  In6      1.0000 0.75000  0.28400  0.53400  Biso   1.000  In
  In7      1.0000 0.96600  0.25000  0.21600  Biso   1.000  In
  In8      1.0000 0.21600  0.96600  0.25000  Biso   1.000  In
  In9      1.0000 0.53400  0.75000  0.28400  Biso   1.000  In
  In10     1.0000 0.28400  0.53400  0.75000  Biso   1.000  In
  In11     1.0000 0.25000  0.71700  0.46700  Biso   1.000  In
  In12     1.0000 0.75000  0.78300  0.03340  Biso   1.000  In
  In13     1.0000 0.46700  0.25000  0.71700  Biso   1.000  In
  In14     1.0000 0.71700  0.46700  0.25000  Biso   1.000  In
  In15     1.0000 0.03340  0.75000  0.78300  Biso   1.000  In
  In16     1.0000 0.78300  0.03340  0.75000  Biso   1.000  In
  O1       1.0000 0.45400  0.46400  0.22700  Biso   1.000  O 
  O2       1.0000 0.73700  0.22700  0.27300  Biso   1.000  O 
  O3       1.0000 0.04620  0.27300  0.00999  Biso   1.000  O 
  O4       1.0000 0.76300  0.03630  0.49000  Biso   1.000  O 
  O5       1.0000 0.22700  0.45400  0.46400  Biso   1.000  O 
  O6       1.0000 0.46400  0.22700  0.45400  Biso   1.000  O 
  O7       1.0000 0.49000  0.76300  0.03630  Biso   1.000  O 
  O8       1.0000 0.22700  0.27300  0.73700  Biso   1.000  O 
  O9       1.0000 0.27300  0.73700  0.22700  Biso   1.000  O 
  O10      1.0000 0.27300  0.00999  0.04620  Biso   1.000  O 
  O11      1.0000 0.00999  0.04620  0.27300  Biso   1.000  O 
  O12      1.0000 0.03630  0.49000  0.76300  Biso   1.000  O 
  O13      1.0000 0.77200  0.54600  0.53600  Biso   1.000  O 
  O14      1.0000 0.51000  0.23600  0.96400  Biso   1.000  O 
  O15      1.0000 0.72800  0.26400  0.77400  Biso   1.000  O 
  O16      1.0000 0.99000  0.95400  0.72600  Biso   1.000  O 
  O17      1.0000 0.53600  0.77200  0.54600  Biso   1.000  O 
  O18      1.0000 0.54600  0.53600  0.77200  Biso   1.000  O 
  O19      1.0000 0.72600  0.99000  0.95400  Biso   1.000  O 
  O20      1.0000 0.23600  0.96400  0.51000  Biso   1.000  O 
  O21      1.0000 0.96400  0.51000  0.23600  Biso   1.000  O 
  O22      1.0000 0.26400  0.77400  0.72800  Biso   1.000  O 
  O23      1.0000 0.77400  0.72800  0.26400  Biso   1.000  O 
  O24      1.0000 0.95400  0.72600  0.99000  Biso   1.000  O 
