data_image0
_cell_length_a       5.90933
_cell_length_b       5.90933
_cell_length_c       5.91225
_cell_angle_alpha    119.765
_cell_angle_beta     120.064
_cell_angle_gamma    90.1201

_symmetry_space_group_name_H-M    "P 1"
_symmetry_int_tables_number       1

loop_
  _symmetry_equiv_pos_as_xyz
  'x, y, z'

loop_
  _atom_site_label
  _atom_site_occupancy
  _atom_site_fract_x
  _atom_site_fract_y
  _atom_site_fract_z
  _atom_site_thermal_displace_type
  _atom_site_B_iso_or_equiv
  _atom_site_type_symbol
  Fe1      1.0000 0.00448  0.00448  0.00000  Biso   1.000  Fe
  Fe2      1.0000 0.37500  0.62500  0.25000  Biso   1.000  Fe
  Fe3      1.0000 0.74600  0.24600  0.50000  Biso   1.000  Fe
  Fe4      1.0000 0.37500  0.12500  0.75000  Biso   1.000  Fe
  Ni1      1.0000 0.87500  0.62500  0.25000  Biso   1.000  Ni
  Ni2      1.0000 0.37500  0.62500  0.75000  Biso   1.000  Ni
  O1       1.0000 0.61300  0.37800  0.23500  Biso   1.000  O 
  O2       1.0000 0.61600  0.85500  0.23900  Biso   1.000  O 
  O3       1.0000 0.13400  0.39500  0.26100  Biso   1.000  O 
  O4       1.0000 0.13700  0.87200  0.26500  Biso   1.000  O 
  O5       1.0000 0.60600  0.87100  0.73500  Biso   1.000  O 
  O6       1.0000 0.13400  0.87300  0.73900  Biso   1.000  O 
  O7       1.0000 0.61600  0.37700  0.76100  Biso   1.000  O 
  O8       1.0000 0.14400  0.37900  0.76500  Biso   1.000  O 
