data_image0
_cell_length_a       7.39669
_cell_length_b       7.4112
_cell_length_c       4.27356
_cell_angle_alpha    90
_cell_angle_beta     90
_cell_angle_gamma    119.937

_symmetry_space_group_name_H-M    "P 1"
_symmetry_int_tables_number       1

loop_
  _symmetry_equiv_pos_as_xyz
  'x, y, z'

loop_
  _atom_site_label
  _atom_site_occupancy
  _atom_site_fract_x
  _atom_site_fract_y
  _atom_site_fract_z
  _atom_site_thermal_displace_type
  _atom_site_B_iso_or_equiv
  _atom_site_type_symbol
  Cl1      1.0000 0.30100  0.38600  0.25000  Biso   1.000  Cl
  Cl2      1.0000 0.08510  0.69900  0.25000  Biso   1.000  Cl
  Cl3      1.0000 0.61400  0.91500  0.25000  Biso   1.000  Cl
  Cl4      1.0000 0.38600  0.08510  0.75000  Biso   1.000  Cl
  Cl5      1.0000 0.91500  0.30100  0.75000  Biso   1.000  Cl
  Cl6      1.0000 0.69900  0.61400  0.75000  Biso   1.000  Cl
  U1       1.0000 0.66600  0.33300  0.25000  Biso   1.000  U 
  U2       1.0000 0.33400  0.66700  0.75000  Biso   1.000  U 
