data_image0
_cell_length_a       5.3785
_cell_length_b       5.37851
_cell_length_c       9.06944
_cell_angle_alpha    89.9999
_cell_angle_beta     90.0003
_cell_angle_gamma    120.006

_symmetry_space_group_name_H-M    "P 1"
_symmetry_int_tables_number       1

loop_
  _symmetry_equiv_pos_as_xyz
  'x, y, z'

loop_
  _atom_site_label
  _atom_site_occupancy
  _atom_site_fract_x
  _atom_site_fract_y
  _atom_site_fract_z
  _atom_site_thermal_displace_type
  _atom_site_B_iso_or_equiv
  _atom_site_type_symbol
  Mn1      1.0000 0.33300  0.66700  0.61400  Biso   1.000  Mn
  Mn2      1.0000 0.66700  0.33300  0.11400  Biso   1.000  Mn
  Mn3      1.0000 0.66700  0.33300  0.38600  Biso   1.000  Mn
  Mn4      1.0000 0.33300  0.66700  0.88600  Biso   1.000  Mn
  O1       1.0000 0.17700  0.82300  0.75000  Biso   1.000  O 
  O2       1.0000 0.82300  0.17700  0.25000  Biso   1.000  O 
  O3       1.0000 0.17700  0.35400  0.75000  Biso   1.000  O 
  O4       1.0000 0.64600  0.82300  0.75000  Biso   1.000  O 
  O5       1.0000 0.35400  0.17700  0.25000  Biso   1.000  O 
  O6       1.0000 0.82300  0.64600  0.25000  Biso   1.000  O 
  O7       1.0000 0.50000  1.00000  1.00000  Biso   1.000  O 
  O8       1.0000 0.50000  0.00000  0.50000  Biso   1.000  O 
  O9       1.0000 0.00000  0.50000  0.00000  Biso   1.000  O 
  O10      1.0000 0.50000  0.50000  0.00000  Biso   1.000  O 
  O11      1.0000 0.50000  0.50000  0.50000  Biso   1.000  O 
  O12      1.0000 0.00000  0.50000  0.50000  Biso   1.000  O 
  Sr1      1.0000 0.33300  0.66700  0.25000  Biso   1.000  Sr
  Sr2      1.0000 0.66700  0.33300  0.75000  Biso   1.000  Sr
  Sr3      1.0000 0.00000  0.00000  1.00000  Biso   1.000  Sr
  Sr4      1.0000 0.00000  0.00000  0.50000  Biso   1.000  Sr
