data_image0
_cell_length_a       6.31217
_cell_length_b       3.63236
_cell_length_c       6.31217
_cell_angle_alpha    90
_cell_angle_beta     120
_cell_angle_gamma    90

_symmetry_space_group_name_H-M    "P 1"
_symmetry_int_tables_number       1

loop_
  _symmetry_equiv_pos_as_xyz
  'x, y, z'

loop_
  _atom_site_label
  _atom_site_occupancy
  _atom_site_fract_x
  _atom_site_fract_y
  _atom_site_fract_z
  _atom_site_thermal_displace_type
  _atom_site_B_iso_or_equiv
  _atom_site_type_symbol
  H1       1.0000 0.86000  0.50000  0.13300  Biso   1.000  H 
  H2       1.0000 0.27200  0.50000  0.14000  Biso   1.000  H 
  H3       1.0000 0.13300  0.00000  0.27200  Biso   1.000  H 
  H4       1.0000 0.86700  0.50000  0.72800  Biso   1.000  H 
  H5       1.0000 0.72800  0.00000  0.86000  Biso   1.000  H 
  H6       1.0000 0.14000  0.00000  0.86700  Biso   1.000  H 
  O1       1.0000 0.39000  0.50000  0.08280  Biso   1.000  O 
  O2       1.0000 0.91700  0.50000  0.30700  Biso   1.000  O 
  O3       1.0000 0.30700  0.00000  0.39000  Biso   1.000  O 
  O4       1.0000 0.69300  0.50000  0.61000  Biso   1.000  O 
  O5       1.0000 0.08280  0.00000  0.69300  Biso   1.000  O 
  O6       1.0000 0.61000  0.00000  0.91700  Biso   1.000  O 
  Sm1      1.0000 0.66700  0.00000  0.33300  Biso   1.000  Sm
  Sm2      1.0000 0.33300  0.50000  0.66700  Biso   1.000  Sm
