data_image0
_cell_length_a       12.6033
_cell_length_b       12.6033
_cell_length_c       5.73083
_cell_angle_alpha    89.5164
_cell_angle_beta     90.4836
_cell_angle_gamma    91.4791

_symmetry_space_group_name_H-M    "P 1"
_symmetry_int_tables_number       1

loop_
  _symmetry_equiv_pos_as_xyz
  'x, y, z'

loop_
  _atom_site_label
  _atom_site_occupancy
  _atom_site_fract_x
  _atom_site_fract_y
  _atom_site_fract_z
  _atom_site_thermal_displace_type
  _atom_site_B_iso_or_equiv
  _atom_site_type_symbol
  Cl1      1.0000 0.58300  0.80500  0.26700  Biso   1.000  Cl
  Cl2      1.0000 0.80500  0.58300  0.73300  Biso   1.000  Cl
  Cl3      1.0000 0.41700  0.19500  0.73300  Biso   1.000  Cl
  Cl4      1.0000 0.19500  0.41700  0.26700  Biso   1.000  Cl
  Cl5      1.0000 0.53600  0.66200  0.75300  Biso   1.000  Cl
  Cl6      1.0000 0.66200  0.53600  0.24700  Biso   1.000  Cl
  Cl7      1.0000 0.46400  0.33800  0.24700  Biso   1.000  Cl
  Cl8      1.0000 0.33800  0.46400  0.75300  Biso   1.000  Cl
  Cl9      1.0000 0.28100  0.71900  0.74200  Biso   1.000  Cl
  Cl10     1.0000 0.71900  0.28100  0.25800  Biso   1.000  Cl
  Cl11     1.0000 0.47100  0.91700  0.75900  Biso   1.000  Cl
  Cl12     1.0000 0.91700  0.47100  0.24100  Biso   1.000  Cl
  Cl13     1.0000 0.52900  0.08300  0.24100  Biso   1.000  Cl
  Cl14     1.0000 0.08300  0.52900  0.75900  Biso   1.000  Cl
  Cl15     1.0000 0.32700  0.86800  0.27500  Biso   1.000  Cl
  Cl16     1.0000 0.86800  0.32700  0.72500  Biso   1.000  Cl
  Cl17     1.0000 0.67300  0.13200  0.72500  Biso   1.000  Cl
  Cl18     1.0000 0.13200  0.67300  0.27500  Biso   1.000  Cl
  Cl19     1.0000 0.38700  0.61300  0.28700  Biso   1.000  Cl
  Cl20     1.0000 0.61300  0.38700  0.71300  Biso   1.000  Cl
  Cl21     1.0000 0.05270  0.94700  0.23200  Biso   1.000  Cl
  Cl22     1.0000 0.94700  0.05270  0.76800  Biso   1.000  Cl
  Cl23     1.0000 0.25000  0.13800  0.24900  Biso   1.000  Cl
  Cl24     1.0000 0.13800  0.25000  0.75100  Biso   1.000  Cl
  Cl25     1.0000 0.75000  0.86200  0.75100  Biso   1.000  Cl
  Cl26     1.0000 0.86200  0.75000  0.24900  Biso   1.000  Cl
  Cl27     1.0000 0.20200  0.99500  0.76900  Biso   1.000  Cl
  Cl28     1.0000 0.99500  0.20200  0.23100  Biso   1.000  Cl
  Cl29     1.0000 0.79800  0.00510  0.23100  Biso   1.000  Cl
  Cl30     1.0000 0.00510  0.79800  0.76900  Biso   1.000  Cl
  Ta1      1.0000 0.11200  0.11200  0.00000  Biso   1.000  Ta
  Ta2      1.0000 0.88800  0.88800  0.00000  Biso   1.000  Ta
  Ta3      1.0000 0.44500  0.77800  0.51400  Biso   1.000  Ta
  Ta4      1.0000 0.77800  0.44500  0.48600  Biso   1.000  Ta
  Ta5      1.0000 0.55500  0.22200  0.48600  Biso   1.000  Ta
  Ta6      1.0000 0.22200  0.55500  0.51400  Biso   1.000  Ta
