data_image0
_cell_length_a       4.59004
_cell_length_b       4.59004
_cell_length_c       4.59004
_cell_angle_alpha    90
_cell_angle_beta     90
_cell_angle_gamma    90

_symmetry_space_group_name_H-M    "P 1"
_symmetry_int_tables_number       1

loop_
  _symmetry_equiv_pos_as_xyz
  'x, y, z'

loop_
  _atom_site_label
  _atom_site_occupancy
  _atom_site_fract_x
  _atom_site_fract_y
  _atom_site_fract_z
  _atom_site_thermal_displace_type
  _atom_site_B_iso_or_equiv
  _atom_site_type_symbol
  Cr1      1.0000 0.13800  0.13800  0.13800  Biso   1.000  Cr
  Cr2      1.0000 0.86200  0.63800  0.36200  Biso   1.000  Cr
  Cr3      1.0000 0.36200  0.86200  0.63800  Biso   1.000  Cr
  Cr4      1.0000 0.63800  0.36200  0.86200  Biso   1.000  Cr
  Si1      1.0000 0.34700  0.65300  0.15300  Biso   1.000  Si
  Si2      1.0000 0.65300  0.15300  0.34700  Biso   1.000  Si
  Si3      1.0000 0.15300  0.34700  0.65300  Biso   1.000  Si
  Si4      1.0000 0.84700  0.84700  0.84700  Biso   1.000  Si
