data_image0
_cell_length_a       3.65512
_cell_length_b       3.91653
_cell_length_c       18.2797
_cell_angle_alpha    90
_cell_angle_beta     90
_cell_angle_gamma    90

_symmetry_space_group_name_H-M    "P 1"
_symmetry_int_tables_number       1

loop_
  _symmetry_equiv_pos_as_xyz
  'x, y, z'

loop_
  _atom_site_label
  _atom_site_occupancy
  _atom_site_fract_x
  _atom_site_fract_y
  _atom_site_fract_z
  _atom_site_thermal_displace_type
  _atom_site_B_iso_or_equiv
  _atom_site_type_symbol
  Cl1      1.0000 0.25000  0.51000  0.18300  Biso   1.000  Cl
  Cl2      1.0000 0.75000  0.00961  0.31700  Biso   1.000  Cl
  Cl3      1.0000 0.25000  0.99000  0.68300  Biso   1.000  Cl
  Cl4      1.0000 0.75000  0.49000  0.81700  Biso   1.000  Cl
  Nb1      1.0000 0.75000  0.47300  0.08040  Biso   1.000  Nb
  Nb2      1.0000 0.25000  0.97300  0.42000  Biso   1.000  Nb
  Nb3      1.0000 0.75000  0.02700  0.58000  Biso   1.000  Nb
  Nb4      1.0000 0.25000  0.52700  0.92000  Biso   1.000  Nb
  O1       1.0000 0.25000  0.53800  0.03480  Biso   1.000  O 
  O2       1.0000 0.75000  0.01090  0.09180  Biso   1.000  O 
  O3       1.0000 0.25000  0.51100  0.40800  Biso   1.000  O 
  O4       1.0000 0.75000  0.03840  0.46500  Biso   1.000  O 
  O5       1.0000 0.25000  0.96200  0.53500  Biso   1.000  O 
  O6       1.0000 0.75000  0.48900  0.59200  Biso   1.000  O 
  O7       1.0000 0.25000  0.98900  0.90800  Biso   1.000  O 
  O8       1.0000 0.75000  0.46200  0.96500  Biso   1.000  O 
