data_image0
_cell_length_a       5.79001
_cell_length_b       5.87825
_cell_length_c       6.9804
_cell_angle_alpha    101.786
_cell_angle_beta     114.503
_cell_angle_gamma    60.4953

_symmetry_space_group_name_H-M    "P 1"
_symmetry_int_tables_number       1

loop_
  _symmetry_equiv_pos_as_xyz
  'x, y, z'

loop_
  _atom_site_label
  _atom_site_occupancy
  _atom_site_fract_x
  _atom_site_fract_y
  _atom_site_fract_z
  _atom_site_thermal_displace_type
  _atom_site_B_iso_or_equiv
  _atom_site_type_symbol
  Ag1      1.0000 0.19400  0.61100  0.25000  Biso   1.000  Ag
  Ag2      1.0000 0.55600  0.88900  0.25000  Biso   1.000  Ag
  Ag3      1.0000 0.44400  0.11100  0.75000  Biso   1.000  Ag
  Ag4      1.0000 0.80600  0.38900  0.75000  Biso   1.000  Ag
  O1       1.0000 0.74600  0.07890  0.11400  Biso   1.000  O 
  O2       1.0000 0.86800  0.42100  0.11400  Biso   1.000  O 
  O3       1.0000 0.17500  0.07890  0.38600  Biso   1.000  O 
  O4       1.0000 0.71100  0.42100  0.38600  Biso   1.000  O 
  O5       1.0000 0.28900  0.57900  0.61400  Biso   1.000  O 
  O6       1.0000 0.82500  0.92100  0.61400  Biso   1.000  O 
  O7       1.0000 0.13200  0.57900  0.88600  Biso   1.000  O 
  O8       1.0000 0.25400  0.92100  0.88600  Biso   1.000  O 
  S1       1.0000 0.87500  0.25000  0.25000  Biso   1.000  S 
  S2       1.0000 0.12500  0.75000  0.75000  Biso   1.000  S 
