data_image0
_cell_length_a       5.59427
_cell_length_b       5.59427
_cell_length_c       5.59427
_cell_angle_alpha    54.7686
_cell_angle_beta     54.7686
_cell_angle_gamma    54.7686

_symmetry_space_group_name_H-M    "P 1"
_symmetry_int_tables_number       1

loop_
  _symmetry_equiv_pos_as_xyz
  'x, y, z'

loop_
  _atom_site_label
  _atom_site_occupancy
  _atom_site_fract_x
  _atom_site_fract_y
  _atom_site_fract_z
  _atom_site_thermal_displace_type
  _atom_site_B_iso_or_equiv
  _atom_site_type_symbol
  Mn1      1.0000 0.35900  0.35900  0.35900  Biso   1.000  Mn
  Mn2      1.0000 0.64100  0.64100  0.64100  Biso   1.000  Mn
  O1       1.0000 0.78200  0.43800  0.04450  Biso   1.000  O 
  O2       1.0000 0.56200  0.95600  0.21800  Biso   1.000  O 
  O3       1.0000 0.04450  0.78200  0.43800  Biso   1.000  O 
  O4       1.0000 0.95600  0.21800  0.56200  Biso   1.000  O 
  O5       1.0000 0.43800  0.04450  0.78200  Biso   1.000  O 
  O6       1.0000 0.21800  0.56200  0.95600  Biso   1.000  O 
  Ti1      1.0000 0.14800  0.14800  0.14800  Biso   1.000  Ti
  Ti2      1.0000 0.85200  0.85200  0.85200  Biso   1.000  Ti
