data_image0
_cell_length_a       8.43457
_cell_length_b       8.43457
_cell_length_c       8.43457
_cell_angle_alpha    109.471
_cell_angle_beta     109.471
_cell_angle_gamma    109.471

_symmetry_space_group_name_H-M    "P 1"
_symmetry_int_tables_number       1

loop_
  _symmetry_equiv_pos_as_xyz
  'x, y, z'

loop_
  _atom_site_label
  _atom_site_occupancy
  _atom_site_fract_x
  _atom_site_fract_y
  _atom_site_fract_z
  _atom_site_thermal_displace_type
  _atom_site_B_iso_or_equiv
  _atom_site_type_symbol
  O1       1.0000 0.77300  0.54800  0.53500  Biso   1.000  O 
  O2       1.0000 0.51200  0.23800  0.96500  Biso   1.000  O 
  O3       1.0000 0.72700  0.26200  0.77500  Biso   1.000  O 
  O4       1.0000 0.98800  0.95200  0.72500  Biso   1.000  O 
  O5       1.0000 0.53500  0.77300  0.54800  Biso   1.000  O 
  O6       1.0000 0.54800  0.53500  0.77300  Biso   1.000  O 
  O7       1.0000 0.72500  0.98800  0.95200  Biso   1.000  O 
  O8       1.0000 0.23800  0.96500  0.51200  Biso   1.000  O 
  O9       1.0000 0.96500  0.51200  0.23800  Biso   1.000  O 
  O10      1.0000 0.26200  0.77500  0.72700  Biso   1.000  O 
  O11      1.0000 0.77500  0.72700  0.26200  Biso   1.000  O 
  O12      1.0000 0.95200  0.72500  0.98800  Biso   1.000  O 
  O13      1.0000 0.45200  0.46400  0.22600  Biso   1.000  O 
  O14      1.0000 0.73800  0.22600  0.27400  Biso   1.000  O 
  O15      1.0000 0.04770  0.27400  0.01210  Biso   1.000  O 
  O16      1.0000 0.76200  0.03560  0.48800  Biso   1.000  O 
  O17      1.0000 0.22600  0.45200  0.46400  Biso   1.000  O 
  O18      1.0000 0.46400  0.22600  0.45200  Biso   1.000  O 
  O19      1.0000 0.48800  0.76200  0.03560  Biso   1.000  O 
  O20      1.0000 0.22600  0.27400  0.73800  Biso   1.000  O 
  O21      1.0000 0.27400  0.73800  0.22600  Biso   1.000  O 
  O22      1.0000 0.27400  0.01210  0.04770  Biso   1.000  O 
  O23      1.0000 0.01210  0.04770  0.27400  Biso   1.000  O 
  O24      1.0000 0.03560  0.48800  0.76200  Biso   1.000  O 
  Sc1      1.0000 0.49900  0.49900  0.49900  Biso   1.000  Sc
  Sc2      1.0000 0.50000  0.00000  0.00097  Biso   1.000  Sc
  Sc3      1.0000 0.00097  0.50000  0.00000  Biso   1.000  Sc
  Sc4      1.0000 0.00000  0.00097  0.50000  Biso   1.000  Sc
  Sc5      1.0000 0.25000  0.71400  0.46400  Biso   1.000  Sc
  Sc6      1.0000 0.75000  0.78600  0.03560  Biso   1.000  Sc
  Sc7      1.0000 0.46400  0.25000  0.71400  Biso   1.000  Sc
  Sc8      1.0000 0.71400  0.46400  0.25000  Biso   1.000  Sc
  Sc9      1.0000 0.03560  0.75000  0.78600  Biso   1.000  Sc
  Sc10     1.0000 0.78600  0.03560  0.75000  Biso   1.000  Sc
  Sc11     1.0000 0.25000  0.21400  0.96400  Biso   1.000  Sc
  Sc12     1.0000 0.75000  0.28600  0.53600  Biso   1.000  Sc
  Sc13     1.0000 0.96400  0.25000  0.21400  Biso   1.000  Sc
  Sc14     1.0000 0.21400  0.96400  0.25000  Biso   1.000  Sc
  Sc15     1.0000 0.53600  0.75000  0.28600  Biso   1.000  Sc
  Sc16     1.0000 0.28600  0.53600  0.75000  Biso   1.000  Sc
