data_image0
_cell_length_a       6.8909
_cell_length_b       7.25162
_cell_length_c       14.8118
_cell_angle_alpha    90
_cell_angle_beta     94.0223
_cell_angle_gamma    90

_symmetry_space_group_name_H-M    "P 1"
_symmetry_int_tables_number       1

loop_
  _symmetry_equiv_pos_as_xyz
  'x, y, z'

loop_
  _atom_site_label
  _atom_site_occupancy
  _atom_site_fract_x
  _atom_site_fract_y
  _atom_site_fract_z
  _atom_site_thermal_displace_type
  _atom_site_B_iso_or_equiv
  _atom_site_type_symbol
  Cd1      1.0000 0.00145  0.37400  0.24400  Biso   1.000  Cd
  Cd2      1.0000 0.99900  0.87400  0.25600  Biso   1.000  Cd
  Cd3      1.0000 0.99900  0.62600  0.75600  Biso   1.000  Cd
  Cd4      1.0000 0.00145  0.12600  0.74400  Biso   1.000  Cd
  Cd5      1.0000 0.25100  0.63000  0.10000  Biso   1.000  Cd
  Cd6      1.0000 0.74900  0.13000  0.40000  Biso   1.000  Cd
  Cd7      1.0000 0.74900  0.37000  0.90000  Biso   1.000  Cd
  Cd8      1.0000 0.25100  0.87000  0.60000  Biso   1.000  Cd
  Cd9      1.0000 0.25100  0.12000  0.10100  Biso   1.000  Cd
  Cd10     1.0000 0.74900  0.62000  0.39900  Biso   1.000  Cd
  Cd11     1.0000 0.74900  0.88000  0.89900  Biso   1.000  Cd
  Cd12     1.0000 0.25100  0.38000  0.60100  Biso   1.000  Cd
  O1       1.0000 0.69000  0.37400  0.28900  Biso   1.000  O 
  O2       1.0000 0.31000  0.87400  0.21100  Biso   1.000  O 
  O3       1.0000 0.31000  0.62600  0.71100  Biso   1.000  O 
  O4       1.0000 0.69000  0.12600  0.78900  Biso   1.000  O 
  O5       1.0000 0.58000  0.19700  0.13300  Biso   1.000  O 
  O6       1.0000 0.42000  0.69700  0.36700  Biso   1.000  O 
  O7       1.0000 0.42000  0.80300  0.86700  Biso   1.000  O 
  O8       1.0000 0.58000  0.30300  0.63300  Biso   1.000  O 
  O9       1.0000 0.42100  0.05290  0.36600  Biso   1.000  O 
  O10      1.0000 0.57900  0.55300  0.13400  Biso   1.000  O 
  O11      1.0000 0.57900  0.94700  0.63400  Biso   1.000  O 
  O12      1.0000 0.42100  0.44700  0.86600  Biso   1.000  O 
  O13      1.0000 0.31000  0.37200  0.20900  Biso   1.000  O 
  O14      1.0000 0.69000  0.87200  0.29100  Biso   1.000  O 
  O15      1.0000 0.69000  0.62800  0.79100  Biso   1.000  O 
  O16      1.0000 0.31000  0.12800  0.70900  Biso   1.000  O 
  O17      1.0000 0.32000  0.37400  0.40700  Biso   1.000  O 
  O18      1.0000 0.68000  0.87400  0.09290  Biso   1.000  O 
  O19      1.0000 0.68000  0.62600  0.59300  Biso   1.000  O 
  O20      1.0000 0.32000  0.12600  0.90700  Biso   1.000  O 
  O21      1.0000 0.21300  0.63000  0.51500  Biso   1.000  O 
  O22      1.0000 0.78700  0.13000  0.98500  Biso   1.000  O 
  O23      1.0000 0.78700  0.37000  0.48500  Biso   1.000  O 
  O24      1.0000 0.21300  0.87000  0.01500  Biso   1.000  O 
  O25      1.0000 0.21900  0.38300  0.01590  Biso   1.000  O 
  O26      1.0000 0.78100  0.88300  0.48400  Biso   1.000  O 
  O27      1.0000 0.78100  0.61700  0.98400  Biso   1.000  O 
  O28      1.0000 0.21900  0.11700  0.51600  Biso   1.000  O 
  O29      1.0000 0.04560  0.61800  0.34600  Biso   1.000  O 
  O30      1.0000 0.95400  0.11800  0.15400  Biso   1.000  O 
  O31      1.0000 0.95400  0.38200  0.65400  Biso   1.000  O 
  O32      1.0000 0.04560  0.88200  0.84600  Biso   1.000  O 
  O33      1.0000 0.04670  0.13000  0.34600  Biso   1.000  O 
  O34      1.0000 0.95300  0.63000  0.15400  Biso   1.000  O 
  O35      1.0000 0.95300  0.87000  0.65400  Biso   1.000  O 
  O36      1.0000 0.04670  0.37000  0.84600  Biso   1.000  O 
  Si1      1.0000 0.54000  0.37400  0.20000  Biso   1.000  Si
  Si2      1.0000 0.46000  0.87400  0.30000  Biso   1.000  Si
  Si3      1.0000 0.46000  0.62600  0.80000  Biso   1.000  Si
  Si4      1.0000 0.54000  0.12600  0.70000  Biso   1.000  Si
  Si5      1.0000 0.24100  0.58500  0.41100  Biso   1.000  Si
  Si6      1.0000 0.75900  0.08480  0.08910  Biso   1.000  Si
  Si7      1.0000 0.75900  0.41500  0.58900  Biso   1.000  Si
  Si8      1.0000 0.24100  0.91500  0.91100  Biso   1.000  Si
  Si9      1.0000 0.24200  0.16200  0.41100  Biso   1.000  Si
  Si10     1.0000 0.75800  0.66200  0.08850  Biso   1.000  Si
  Si11     1.0000 0.75800  0.83800  0.58900  Biso   1.000  Si
  Si12     1.0000 0.24200  0.33800  0.91100  Biso   1.000  Si
