data_image0
_cell_length_a       4.04373
_cell_length_b       4.04373
_cell_length_c       4.49241
_cell_angle_alpha    116.748
_cell_angle_beta     116.748
_cell_angle_gamma    90

_symmetry_space_group_name_H-M    "P 1"
_symmetry_int_tables_number       1

loop_
  _symmetry_equiv_pos_as_xyz
  'x, y, z'

loop_
  _atom_site_label
  _atom_site_occupancy
  _atom_site_fract_x
  _atom_site_fract_y
  _atom_site_fract_z
  _atom_site_thermal_displace_type
  _atom_site_B_iso_or_equiv
  _atom_site_type_symbol
  F1       1.0000 0.70100  0.70100  0.40100  Biso   1.000  F 
  F2       1.0000 0.29900  0.29900  0.59900  Biso   1.000  F 
  Xe1      1.0000 0.00000  0.00000  0.00000  Biso   1.000  Xe
