data_image0
_cell_length_a       5.67146
_cell_length_b       5.67146
_cell_length_c       5.67146
_cell_angle_alpha    60
_cell_angle_beta     60
_cell_angle_gamma    60

_symmetry_space_group_name_H-M    "P 1"
_symmetry_int_tables_number       1

loop_
  _symmetry_equiv_pos_as_xyz
  'x, y, z'

loop_
  _atom_site_label
  _atom_site_occupancy
  _atom_site_fract_x
  _atom_site_fract_y
  _atom_site_fract_z
  _atom_site_thermal_displace_type
  _atom_site_B_iso_or_equiv
  _atom_site_type_symbol
  Co1      1.0000 0.00000  0.00000  0.00000  Biso   1.000  Co
  Co2      1.0000 0.62500  0.62500  0.62500  Biso   1.000  Co
  Co3      1.0000 0.62500  0.62500  0.12500  Biso   1.000  Co
  Co4      1.0000 0.12500  0.62500  0.62500  Biso   1.000  Co
  Co5      1.0000 0.62500  0.12500  0.62500  Biso   1.000  Co
  Co6      1.0000 0.25000  0.25000  0.25000  Biso   1.000  Co
  O1       1.0000 0.86200  0.41400  0.86200  Biso   1.000  O 
  O2       1.0000 0.38800  0.38800  0.38800  Biso   1.000  O 
  O3       1.0000 0.38800  0.38800  0.83600  Biso   1.000  O 
  O4       1.0000 0.83600  0.38800  0.38800  Biso   1.000  O 
  O5       1.0000 0.38800  0.83600  0.38800  Biso   1.000  O 
  O6       1.0000 0.86200  0.86200  0.86200  Biso   1.000  O 
  O7       1.0000 0.86200  0.86200  0.41400  Biso   1.000  O 
  O8       1.0000 0.41400  0.86200  0.86200  Biso   1.000  O 
