data_image0
_cell_length_a       5.31503
_cell_length_b       4.03838
_cell_length_c       7.45552
_cell_angle_alpha    90
_cell_angle_beta     90
_cell_angle_gamma    90

_symmetry_space_group_name_H-M    "P 1"
_symmetry_int_tables_number       1

loop_
  _symmetry_equiv_pos_as_xyz
  'x, y, z'

loop_
  _atom_site_label
  _atom_site_occupancy
  _atom_site_fract_x
  _atom_site_fract_y
  _atom_site_fract_z
  _atom_site_thermal_displace_type
  _atom_site_B_iso_or_equiv
  _atom_site_type_symbol
  Ru1      1.0000 0.83400  0.25000  0.06510  Biso   1.000  Ru
  Ru2      1.0000 0.51400  0.75000  0.21200  Biso   1.000  Ru
  Ru3      1.0000 0.01390  0.75000  0.28800  Biso   1.000  Ru
  Ru4      1.0000 0.33400  0.25000  0.43500  Biso   1.000  Ru
  Ru5      1.0000 0.66600  0.75000  0.56500  Biso   1.000  Ru
  Ru6      1.0000 0.98600  0.25000  0.71200  Biso   1.000  Ru
  Ru7      1.0000 0.48600  0.25000  0.78800  Biso   1.000  Ru
  Ru8      1.0000 0.16600  0.75000  0.93500  Biso   1.000  Ru
  Si1      1.0000 0.29900  0.25000  0.09860  Biso   1.000  Si
  Si2      1.0000 0.79900  0.25000  0.40100  Biso   1.000  Si
  Si3      1.0000 0.20100  0.75000  0.59900  Biso   1.000  Si
  Si4      1.0000 0.70100  0.75000  0.90100  Biso   1.000  Si
