data_image0
_cell_length_a       7.41114
_cell_length_b       7.1647
_cell_length_c       7.1647
_cell_angle_alpha    76.5727
_cell_angle_beta     93.2035
_cell_angle_gamma    93.2034

_symmetry_space_group_name_H-M    "P 1"
_symmetry_int_tables_number       1

loop_
  _symmetry_equiv_pos_as_xyz
  'x, y, z'

loop_
  _atom_site_label
  _atom_site_occupancy
  _atom_site_fract_x
  _atom_site_fract_y
  _atom_site_fract_z
  _atom_site_thermal_displace_type
  _atom_site_B_iso_or_equiv
  _atom_site_type_symbol
  Br1      1.0000 0.74100  0.05200  0.05200  Biso   1.000  Br
  Br2      1.0000 0.65900  0.55300  0.17000  Biso   1.000  Br
  Br3      1.0000 0.15400  0.32600  0.32600  Biso   1.000  Br
  Br4      1.0000 0.34100  0.83000  0.44700  Biso   1.000  Br
  Br5      1.0000 0.65900  0.17000  0.55300  Biso   1.000  Br
  Br6      1.0000 0.84600  0.67400  0.67400  Biso   1.000  Br
  Br7      1.0000 0.34100  0.44700  0.83000  Biso   1.000  Br
  Br8      1.0000 0.25900  0.94800  0.94800  Biso   1.000  Br
  U1       1.0000 0.44200  0.19700  0.19700  Biso   1.000  U 
  U2       1.0000 0.55800  0.80300  0.80300  Biso   1.000  U 
