data_image0
_cell_length_a       5.19711
_cell_length_b       5.19711
_cell_length_c       5.65793
_cell_angle_alpha    90
_cell_angle_beta     90
_cell_angle_gamma    90

_symmetry_space_group_name_H-M    "P 1"
_symmetry_int_tables_number       1

loop_
  _symmetry_equiv_pos_as_xyz
  'x, y, z'

loop_
  _atom_site_label
  _atom_site_occupancy
  _atom_site_fract_x
  _atom_site_fract_y
  _atom_site_fract_z
  _atom_site_thermal_displace_type
  _atom_site_B_iso_or_equiv
  _atom_site_type_symbol
  Pd1      1.0000 0.35500  0.23200  0.15700  Biso   1.000  Pd
  Pd2      1.0000 0.64500  0.76800  0.15700  Biso   1.000  Pd
  Pd3      1.0000 0.85500  0.26800  0.34300  Biso   1.000  Pd
  Pd4      1.0000 0.14500  0.73200  0.34300  Biso   1.000  Pd
  Pd5      1.0000 0.26800  0.14500  0.65700  Biso   1.000  Pd
  Pd6      1.0000 0.73200  0.85500  0.65700  Biso   1.000  Pd
  Pd7      1.0000 0.76800  0.35500  0.84300  Biso   1.000  Pd
  Pd8      1.0000 0.23200  0.64500  0.84300  Biso   1.000  Pd
  S1       1.0000 0.00000  0.00000  0.00000  Biso   1.000  S 
  S2       1.0000 0.50000  0.50000  0.50000  Biso   1.000  S 
