data_image0
_cell_length_a       7.11718
_cell_length_b       7.11718
_cell_length_c       7.11718
_cell_angle_alpha    106.434
_cell_angle_beta     115.733
_cell_angle_gamma    106.434

_symmetry_space_group_name_H-M    "P 1"
_symmetry_int_tables_number       1

loop_
  _symmetry_equiv_pos_as_xyz
  'x, y, z'

loop_
  _atom_site_label
  _atom_site_occupancy
  _atom_site_fract_x
  _atom_site_fract_y
  _atom_site_fract_z
  _atom_site_thermal_displace_type
  _atom_site_B_iso_or_equiv
  _atom_site_type_symbol
  Cl1      1.0000 0.38700  0.31400  0.07320  Biso   1.000  Cl
  Cl2      1.0000 0.75900  0.68600  0.07320  Biso   1.000  Cl
  Cl3      1.0000 0.32300  0.81400  0.13700  Biso   1.000  Cl
  Cl4      1.0000 0.92700  0.31400  0.24100  Biso   1.000  Cl
  Cl5      1.0000 0.32300  0.18600  0.50900  Biso   1.000  Cl
  Cl6      1.0000 0.92700  0.68600  0.61300  Biso   1.000  Cl
  Cl7      1.0000 0.49100  0.81400  0.67700  Biso   1.000  Cl
  Cl8      1.0000 0.86300  0.18600  0.67700  Biso   1.000  Cl
  Th1      1.0000 0.00000  0.00000  0.00000  Biso   1.000  Th
  Th2      1.0000 0.25000  0.50000  0.75000  Biso   1.000  Th
