data_image0
_cell_length_a       5.0921
_cell_length_b       5.0921
_cell_length_c       5.4736
_cell_angle_alpha    62.28
_cell_angle_beta     117.72
_cell_angle_gamma    120

_symmetry_space_group_name_H-M    "P 1"
_symmetry_int_tables_number       1

loop_
  _symmetry_equiv_pos_as_xyz
  'x, y, z'

loop_
  _atom_site_label
  _atom_site_occupancy
  _atom_site_fract_x
  _atom_site_fract_y
  _atom_site_fract_z
  _atom_site_thermal_displace_type
  _atom_site_B_iso_or_equiv
  _atom_site_type_symbol
  O1       1.0000 0.75000  0.56300  0.25000  Biso   1.000  O 
  O2       1.0000 0.43700  0.93700  0.25000  Biso   1.000  O 
  O3       1.0000 0.06270  0.25000  0.25000  Biso   1.000  O 
  O4       1.0000 0.93700  0.75000  0.75000  Biso   1.000  O 
  O5       1.0000 0.56300  0.06270  0.75000  Biso   1.000  O 
  O6       1.0000 0.25000  0.43700  0.75000  Biso   1.000  O 
  Ti1      1.0000 0.34600  0.65400  0.03680  Biso   1.000  Ti
  Ti2      1.0000 0.15400  0.84600  0.46300  Biso   1.000  Ti
  Ti3      1.0000 0.84600  0.15400  0.53700  Biso   1.000  Ti
  Ti4      1.0000 0.65400  0.34600  0.96300  Biso   1.000  Ti
