data_image0
_cell_length_a       10.6151
_cell_length_b       10.6151
_cell_length_c       5.77404
_cell_angle_alpha    90.0005
_cell_angle_beta     90.0005
_cell_angle_gamma    60.0004

_symmetry_space_group_name_H-M    "P 1"
_symmetry_int_tables_number       1

loop_
  _symmetry_equiv_pos_as_xyz
  'x, y, z'

loop_
  _atom_site_label
  _atom_site_occupancy
  _atom_site_fract_x
  _atom_site_fract_y
  _atom_site_fract_z
  _atom_site_thermal_displace_type
  _atom_site_B_iso_or_equiv
  _atom_site_type_symbol
  Cl1      1.0000 0.89700  0.89700  0.23000  Biso   1.000  Cl
  Cl2      1.0000 0.20500  0.89700  0.23000  Biso   1.000  Cl
  Cl3      1.0000 0.89700  0.20500  0.23000  Biso   1.000  Cl
  Cl4      1.0000 0.56400  0.56400  0.24700  Biso   1.000  Cl
  Cl5      1.0000 0.56400  0.87200  0.24700  Biso   1.000  Cl
  Cl6      1.0000 0.87200  0.56400  0.24700  Biso   1.000  Cl
  Cl7      1.0000 0.23100  0.53800  0.29100  Biso   1.000  Cl
  Cl8      1.0000 0.53800  0.23100  0.29100  Biso   1.000  Cl
  Cl9      1.0000 0.23100  0.23100  0.29100  Biso   1.000  Cl
  Cl10     1.0000 0.76900  0.76900  0.70900  Biso   1.000  Cl
  Cl11     1.0000 0.76900  0.46200  0.70900  Biso   1.000  Cl
  Cl12     1.0000 0.46200  0.76900  0.70900  Biso   1.000  Cl
  Cl13     1.0000 0.43600  0.12800  0.75300  Biso   1.000  Cl
  Cl14     1.0000 0.12800  0.43600  0.75300  Biso   1.000  Cl
  Cl15     1.0000 0.43600  0.43600  0.75300  Biso   1.000  Cl
  Cl16     1.0000 0.79500  0.10300  0.77000  Biso   1.000  Cl
  Cl17     1.0000 0.10300  0.79500  0.77000  Biso   1.000  Cl
  Cl18     1.0000 0.10300  0.10300  0.77000  Biso   1.000  Cl
  Mo1      1.0000 0.00000  0.00000  0.00000  Biso   1.000  Mo
  Mo2      1.0000 0.66700  0.66700  0.47800  Biso   1.000  Mo
  Mo3      1.0000 0.33300  0.33300  0.52200  Biso   1.000  Mo
