data_image0
_cell_length_a       5.3382
_cell_length_b       5.33813
_cell_length_c       4.99408
_cell_angle_alpha    90.0015
_cell_angle_beta     89.9992
_cell_angle_gamma    120

_symmetry_space_group_name_H-M    "P 1"
_symmetry_int_tables_number       1

loop_
  _symmetry_equiv_pos_as_xyz
  'x, y, z'

loop_
  _atom_site_label
  _atom_site_occupancy
  _atom_site_fract_x
  _atom_site_fract_y
  _atom_site_fract_z
  _atom_site_thermal_displace_type
  _atom_site_B_iso_or_equiv
  _atom_site_type_symbol
  N1       1.0000 0.00000  0.00000  0.00000  Biso   1.000  N 
  N2       1.0000 0.33300  0.66700  0.50000  Biso   1.000  N 
  N3       1.0000 0.66700  0.33300  0.50000  Biso   1.000  N 
  Nb1      1.0000 0.66600  0.66600  0.24800  Biso   1.000  Nb
  Nb2      1.0000 0.33400  1.00000  0.24800  Biso   1.000  Nb
  Nb3      1.0000 0.00000  0.33400  0.24800  Biso   1.000  Nb
  Nb4      1.0000 0.00000  0.66600  0.75200  Biso   1.000  Nb
  Nb5      1.0000 0.33400  0.33400  0.75200  Biso   1.000  Nb
  Nb6      1.0000 0.66600  0.00001  0.75200  Biso   1.000  Nb
