data_image0
_cell_length_a       7.50819
_cell_length_b       7.50819
_cell_length_c       7.50819
_cell_angle_alpha    120
_cell_angle_beta     90
_cell_angle_gamma    120

_symmetry_space_group_name_H-M    "P 1"
_symmetry_int_tables_number       1

loop_
  _symmetry_equiv_pos_as_xyz
  'x, y, z'

loop_
  _atom_site_label
  _atom_site_occupancy
  _atom_site_fract_x
  _atom_site_fract_y
  _atom_site_fract_z
  _atom_site_thermal_displace_type
  _atom_site_B_iso_or_equiv
  _atom_site_type_symbol
  O1       1.0000 0.41100  0.75000  0.08860  Biso   1.000  O 
  O2       1.0000 0.83900  0.75000  0.08860  Biso   1.000  O 
  O3       1.0000 0.83900  0.17700  0.08860  Biso   1.000  O 
  O4       1.0000 0.58900  0.67700  0.33900  Biso   1.000  O 
  O5       1.0000 0.58900  0.25000  0.33900  Biso   1.000  O 
  O6       1.0000 0.16100  0.25000  0.33900  Biso   1.000  O 
  O7       1.0000 0.12500  0.75000  0.37500  Biso   1.000  O 
  O8       1.0000 0.87500  0.25000  0.62500  Biso   1.000  O 
  O9       1.0000 0.41100  0.32300  0.66100  Biso   1.000  O 
  O10      1.0000 0.41100  0.75000  0.66100  Biso   1.000  O 
  O11      1.0000 0.83900  0.75000  0.66100  Biso   1.000  O 
  O12      1.0000 0.16100  0.82300  0.91100  Biso   1.000  O 
  O13      1.0000 0.16100  0.25000  0.91100  Biso   1.000  O 
  O14      1.0000 0.58900  0.25000  0.91100  Biso   1.000  O 
  Sm1      1.0000 0.00000  0.50000  0.00000  Biso   1.000  Sm
  Sm2      1.0000 0.00000  0.50000  0.50000  Biso   1.000  Sm
  Sm3      1.0000 0.00000  0.00000  0.50000  Biso   1.000  Sm
  Sm4      1.0000 0.50000  0.00000  0.50000  Biso   1.000  Sm
  Zr1      1.0000 0.00000  0.00000  0.00000  Biso   1.000  Zr
  Zr2      1.0000 0.50000  0.00000  0.00000  Biso   1.000  Zr
  Zr3      1.0000 0.50000  0.50000  0.00000  Biso   1.000  Zr
  Zr4      1.0000 0.50000  0.50000  0.50000  Biso   1.000  Zr
