data_image0
_cell_length_a       7.32436
_cell_length_b       7.33908
_cell_length_c       8.05835
_cell_angle_alpha    64.0109
_cell_angle_beta     90
_cell_angle_gamma    60.0663

_symmetry_space_group_name_H-M    "P 1"
_symmetry_int_tables_number       1

loop_
  _symmetry_equiv_pos_as_xyz
  'x, y, z'

loop_
  _atom_site_label
  _atom_site_occupancy
  _atom_site_fract_x
  _atom_site_fract_y
  _atom_site_fract_z
  _atom_site_thermal_displace_type
  _atom_site_B_iso_or_equiv
  _atom_site_type_symbol
  Ga1      1.0000 0.02200  0.32500  0.00635  Biso   1.000  Ga
  Ga2      1.0000 0.33200  0.65100  0.00723  Biso   1.000  Ga
  Ga3      1.0000 0.15300  0.32500  0.50600  Biso   1.000  Ga
  Ga4      1.0000 0.51700  0.65100  0.50700  Biso   1.000  Ga
  Te1      1.0000 0.78900  0.75300  0.35700  Biso   1.000  Te
  Te2      1.0000 0.10800  0.05040  0.39300  Biso   1.000  Te
  Te3      1.0000 0.48700  0.36600  0.39400  Biso   1.000  Te
  Te4      1.0000 0.95900  0.75300  0.85700  Biso   1.000  Te
  Te5      1.0000 0.34100  0.05040  0.89300  Biso   1.000  Te
  Te6      1.0000 0.64700  0.36600  0.89400  Biso   1.000  Te
