data_image0
_cell_length_a       9.27371
_cell_length_b       5.33504
_cell_length_c       13.374
_cell_angle_alpha    90
_cell_angle_beta     90
_cell_angle_gamma    90

_symmetry_space_group_name_H-M    "P 1"
_symmetry_int_tables_number       1

loop_
  _symmetry_equiv_pos_as_xyz
  'x, y, z'

loop_
  _atom_site_label
  _atom_site_occupancy
  _atom_site_fract_x
  _atom_site_fract_y
  _atom_site_fract_z
  _atom_site_thermal_displace_type
  _atom_site_B_iso_or_equiv
  _atom_site_type_symbol
  Na1      1.0000 0.22300  0.00296  0.01730  Biso   1.000  Na
  Na2      1.0000 0.36900  0.49700  0.15200  Biso   1.000  Na
  Na3      1.0000 0.91700  0.96200  0.16600  Biso   1.000  Na
  Na4      1.0000 0.74100  0.48700  0.23500  Biso   1.000  Na
  Na5      1.0000 0.25900  0.98700  0.26500  Biso   1.000  Na
  Na6      1.0000 0.08310  0.46200  0.33400  Biso   1.000  Na
  Na7      1.0000 0.63100  0.99700  0.34800  Biso   1.000  Na
  Na8      1.0000 0.77700  0.50300  0.48300  Biso   1.000  Na
  Na9      1.0000 0.27700  0.99700  0.51700  Biso   1.000  Na
  Na10     1.0000 0.13100  0.50300  0.65200  Biso   1.000  Na
  Na11     1.0000 0.58300  0.03840  0.66600  Biso   1.000  Na
  Na12     1.0000 0.75900  0.51300  0.73500  Biso   1.000  Na
  Na13     1.0000 0.24100  0.01310  0.76500  Biso   1.000  Na
  Na14     1.0000 0.41700  0.53800  0.83400  Biso   1.000  Na
  Na15     1.0000 0.86900  0.00301  0.84800  Biso   1.000  Na
  Na16     1.0000 0.72300  0.49700  0.98300  Biso   1.000  Na
  O1       1.0000 0.61500  0.09960  0.00344  Biso   1.000  O 
  O2       1.0000 0.89600  0.54700  0.10100  Biso   1.000  O 
  O3       1.0000 0.57100  0.69200  0.10100  Biso   1.000  O 
  O4       1.0000 0.41300  0.07630  0.13300  Biso   1.000  O 
  O5       1.0000 0.14600  0.72100  0.13500  Biso   1.000  O 
  O6       1.0000 0.09470  0.26500  0.17300  Biso   1.000  O 
  O7       1.0000 0.67900  0.08150  0.18300  Biso   1.000  O 
  O8       1.0000 0.32100  0.58200  0.31700  Biso   1.000  O 
  O9       1.0000 0.90500  0.76500  0.32700  Biso   1.000  O 
  O10      1.0000 0.85400  0.22100  0.36500  Biso   1.000  O 
  O11      1.0000 0.58700  0.57600  0.36700  Biso   1.000  O 
  O12      1.0000 0.42900  0.19200  0.39900  Biso   1.000  O 
  O13      1.0000 0.10400  0.04730  0.39900  Biso   1.000  O 
  O14      1.0000 0.38500  0.60000  0.49700  Biso   1.000  O 
  O15      1.0000 0.88500  0.90000  0.50300  Biso   1.000  O 
  O16      1.0000 0.60400  0.45300  0.60100  Biso   1.000  O 
  O17      1.0000 0.92900  0.30800  0.60100  Biso   1.000  O 
  O18      1.0000 0.08650  0.92400  0.63300  Biso   1.000  O 
  O19      1.0000 0.35400  0.27900  0.63500  Biso   1.000  O 
  O20      1.0000 0.40500  0.73500  0.67300  Biso   1.000  O 
  O21      1.0000 0.82100  0.91800  0.68300  Biso   1.000  O 
  O22      1.0000 0.17900  0.41800  0.81700  Biso   1.000  O 
  O23      1.0000 0.59500  0.23500  0.82700  Biso   1.000  O 
  O24      1.0000 0.64600  0.77900  0.86500  Biso   1.000  O 
  O25      1.0000 0.91300  0.42400  0.86700  Biso   1.000  O 
  O26      1.0000 0.07140  0.80800  0.89900  Biso   1.000  O 
  O27      1.0000 0.39600  0.95300  0.89900  Biso   1.000  O 
  O28      1.0000 0.11500  0.40000  0.99700  Biso   1.000  O 
  P1       1.0000 0.05710  0.49100  0.10800  Biso   1.000  P 
  P2       1.0000 0.56500  0.97700  0.11200  Biso   1.000  P 
  P3       1.0000 0.43500  0.47700  0.38800  Biso   1.000  P 
  P4       1.0000 0.94300  0.99100  0.39200  Biso   1.000  P 
  P5       1.0000 0.44300  0.50900  0.60800  Biso   1.000  P 
  P6       1.0000 0.93500  0.02300  0.61200  Biso   1.000  P 
  P7       1.0000 0.06510  0.52300  0.88800  Biso   1.000  P 
  P8       1.0000 0.55700  0.00925  0.89200  Biso   1.000  P 
