data_image0
_cell_length_a       4.80469
_cell_length_b       4.80469
_cell_length_c       5.92117
_cell_angle_alpha    113.936
_cell_angle_beta     66.0636
_cell_angle_gamma    120

_symmetry_space_group_name_H-M    "P 1"
_symmetry_int_tables_number       1

loop_
  _symmetry_equiv_pos_as_xyz
  'x, y, z'

loop_
  _atom_site_label
  _atom_site_occupancy
  _atom_site_fract_x
  _atom_site_fract_y
  _atom_site_fract_z
  _atom_site_thermal_displace_type
  _atom_site_B_iso_or_equiv
  _atom_site_type_symbol
  C1       1.0000 0.24300  0.75700  0.27100  Biso   1.000  C 
  C2       1.0000 0.75700  0.24300  0.72900  Biso   1.000  C 
  Ca1      1.0000 0.00000  0.00000  0.00000  Biso   1.000  Ca
  Mg1      1.0000 0.50000  0.50000  0.50000  Biso   1.000  Mg
  O1       1.0000 0.49500  0.04060  0.26800  Biso   1.000  O 
  O2       1.0000 0.27800  0.50500  0.26800  Biso   1.000  O 
  O3       1.0000 0.95900  0.72200  0.26800  Biso   1.000  O 
  O4       1.0000 0.04060  0.27800  0.73200  Biso   1.000  O 
  O5       1.0000 0.72200  0.49500  0.73200  Biso   1.000  O 
  O6       1.0000 0.50500  0.95900  0.73200  Biso   1.000  O 
