data_image0
_cell_length_a       9.89467
_cell_length_b       9.89467
_cell_length_c       9.89467
_cell_angle_alpha    24.4401
_cell_angle_beta     24.4401
_cell_angle_gamma    24.4401

_symmetry_space_group_name_H-M    "P 1"
_symmetry_int_tables_number       1

loop_
  _symmetry_equiv_pos_as_xyz
  'x, y, z'

loop_
  _atom_site_label
  _atom_site_occupancy
  _atom_site_fract_x
  _atom_site_fract_y
  _atom_site_fract_z
  _atom_site_thermal_displace_type
  _atom_site_B_iso_or_equiv
  _atom_site_type_symbol
  Bi1      1.0000 0.40100  0.40100  0.40100  Biso   1.000  Bi
  Bi2      1.0000 0.59900  0.59900  0.59900  Biso   1.000  Bi
  Se1      1.0000 0.00000  0.00000  0.00000  Biso   1.000  Se
  Se2      1.0000 0.21100  0.21100  0.21100  Biso   1.000  Se
  Se3      1.0000 0.78900  0.78900  0.78900  Biso   1.000  Se
