data_image0
_cell_length_a       6.13232
_cell_length_b       6.13232
_cell_length_c       6.13232
_cell_angle_alpha    120
_cell_angle_beta     90
_cell_angle_gamma    120

_symmetry_space_group_name_H-M    "P 1"
_symmetry_int_tables_number       1

loop_
  _symmetry_equiv_pos_as_xyz
  'x, y, z'

loop_
  _atom_site_label
  _atom_site_occupancy
  _atom_site_fract_x
  _atom_site_fract_y
  _atom_site_fract_z
  _atom_site_thermal_displace_type
  _atom_site_B_iso_or_equiv
  _atom_site_type_symbol
  Cd1      1.0000 0.87500  0.75000  0.12500  Biso   1.000  Cd
  Cd2      1.0000 0.12500  0.25000  0.87500  Biso   1.000  Cd
  Ga1      1.0000 0.50000  0.00000  0.00000  Biso   1.000  Ga
  Ga2      1.0000 0.50000  0.00000  0.50000  Biso   1.000  Ga
  Ga3      1.0000 0.00000  0.50000  0.50000  Biso   1.000  Ga
  Ga4      1.0000 0.50000  0.50000  0.50000  Biso   1.000  Ga
  O1       1.0000 0.73200  0.03570  0.26800  Biso   1.000  O 
  O2       1.0000 0.30400  0.03570  0.26800  Biso   1.000  O 
  O3       1.0000 0.73200  0.46400  0.26800  Biso   1.000  O 
  O4       1.0000 0.26800  0.53600  0.30400  Biso   1.000  O 
  O5       1.0000 0.73200  0.46400  0.69600  Biso   1.000  O 
  O6       1.0000 0.26800  0.53600  0.73200  Biso   1.000  O 
  O7       1.0000 0.26800  0.96400  0.73200  Biso   1.000  O 
  O8       1.0000 0.69600  0.96400  0.73200  Biso   1.000  O 
