data_image0
_cell_length_a       4.39596
_cell_length_b       4.39596
_cell_length_c       4.63518
_cell_angle_alpha    118.307
_cell_angle_beta     118.307
_cell_angle_gamma    90

_symmetry_space_group_name_H-M    "P 1"
_symmetry_int_tables_number       1

loop_
  _symmetry_equiv_pos_as_xyz
  'x, y, z'

loop_
  _atom_site_label
  _atom_site_occupancy
  _atom_site_fract_x
  _atom_site_fract_y
  _atom_site_fract_z
  _atom_site_thermal_displace_type
  _atom_site_B_iso_or_equiv
  _atom_site_type_symbol
  Be1      1.0000 0.25000  0.75000  0.50000  Biso   1.000  Be
  O1       1.0000 0.96800  0.35400  0.24000  Biso   1.000  O 
  O2       1.0000 0.27200  0.88600  0.24000  Biso   1.000  O 
  O3       1.0000 0.11400  0.03210  0.76000  Biso   1.000  O 
  O4       1.0000 0.64600  0.72800  0.76000  Biso   1.000  O 
  S1       1.0000 0.00000  0.00000  0.00000  Biso   1.000  S 
