data_image0
_cell_length_a       7.00105
_cell_length_b       7.14594
_cell_length_c       11.9537
_cell_angle_alpha    90
_cell_angle_beta     90
_cell_angle_gamma    90

_symmetry_space_group_name_H-M    "P 1"
_symmetry_int_tables_number       1

loop_
  _symmetry_equiv_pos_as_xyz
  'x, y, z'

loop_
  _atom_site_label
  _atom_site_occupancy
  _atom_site_fract_x
  _atom_site_fract_y
  _atom_site_fract_z
  _atom_site_thermal_displace_type
  _atom_site_B_iso_or_equiv
  _atom_site_type_symbol
  Au1      1.0000 0.48600  0.39700  0.11600  Biso   1.000  Au
  Au2      1.0000 0.01370  0.89700  0.11600  Biso   1.000  Au
  Au3      1.0000 0.98600  0.39700  0.38400  Biso   1.000  Au
  Au4      1.0000 0.51400  0.89700  0.38400  Biso   1.000  Au
  Au5      1.0000 0.48600  0.10300  0.61600  Biso   1.000  Au
  Au6      1.0000 0.01370  0.60300  0.61600  Biso   1.000  Au
  Au7      1.0000 0.98600  0.10300  0.88400  Biso   1.000  Au
  Au8      1.0000 0.51400  0.60300  0.88400  Biso   1.000  Au
  Sn1      1.0000 0.85400  0.25900  0.08770  Biso   1.000  Sn
  Sn2      1.0000 0.64600  0.75900  0.08770  Biso   1.000  Sn
  Sn3      1.0000 0.37100  0.03450  0.17500  Biso   1.000  Sn
  Sn4      1.0000 0.12900  0.53500  0.17500  Biso   1.000  Sn
  Sn5      1.0000 0.87100  0.03450  0.32500  Biso   1.000  Sn
  Sn6      1.0000 0.62900  0.53500  0.32500  Biso   1.000  Sn
  Sn7      1.0000 0.35400  0.25900  0.41200  Biso   1.000  Sn
  Sn8      1.0000 0.14600  0.75900  0.41200  Biso   1.000  Sn
  Sn9      1.0000 0.85400  0.24100  0.58800  Biso   1.000  Sn
  Sn10     1.0000 0.64600  0.74100  0.58800  Biso   1.000  Sn
  Sn11     1.0000 0.37100  0.46500  0.67500  Biso   1.000  Sn
  Sn12     1.0000 0.12900  0.96500  0.67500  Biso   1.000  Sn
  Sn13     1.0000 0.87100  0.46500  0.82500  Biso   1.000  Sn
  Sn14     1.0000 0.62900  0.96500  0.82500  Biso   1.000  Sn
  Sn15     1.0000 0.35400  0.24100  0.91200  Biso   1.000  Sn
  Sn16     1.0000 0.14600  0.74100  0.91200  Biso   1.000  Sn
