data_image0
_cell_length_a       6.30898
_cell_length_b       7.1468
_cell_length_c       7.1468
_cell_angle_alpha    111.723
_cell_angle_beta     107.113
_cell_angle_gamma    107.113

_symmetry_space_group_name_H-M    "P 1"
_symmetry_int_tables_number       1

loop_
  _symmetry_equiv_pos_as_xyz
  'x, y, z'

loop_
  _atom_site_label
  _atom_site_occupancy
  _atom_site_fract_x
  _atom_site_fract_y
  _atom_site_fract_z
  _atom_site_thermal_displace_type
  _atom_site_B_iso_or_equiv
  _atom_site_type_symbol
  B1       1.0000 0.75000  0.87800  0.12200  Biso   1.000  B 
  B2       1.0000 0.87200  0.24400  0.12200  Biso   1.000  B 
  B3       1.0000 0.37200  0.12200  0.24400  Biso   1.000  B 
  B4       1.0000 0.62800  0.87800  0.75600  Biso   1.000  B 
  B5       1.0000 0.12800  0.75600  0.87800  Biso   1.000  B 
  B6       1.0000 0.25000  0.12200  0.87800  Biso   1.000  B 
  Na1      1.0000 0.31300  0.56300  0.12500  Biso   1.000  Na
  Na2      1.0000 0.18700  0.87500  0.43700  Biso   1.000  Na
  Na3      1.0000 0.75000  0.56300  0.43700  Biso   1.000  Na
  Na4      1.0000 0.25000  0.43700  0.56300  Biso   1.000  Na
  Na5      1.0000 0.81300  0.12500  0.56300  Biso   1.000  Na
  Na6      1.0000 0.68700  0.43700  0.87500  Biso   1.000  Na
  O1       1.0000 0.25000  0.88300  0.11700  Biso   1.000  O 
  O2       1.0000 0.36700  0.23500  0.11700  Biso   1.000  O 
  O3       1.0000 0.75000  0.76700  0.23300  Biso   1.000  O 
  O4       1.0000 0.98300  0.46600  0.23300  Biso   1.000  O 
  O5       1.0000 0.86700  0.11700  0.23500  Biso   1.000  O 
  O6       1.0000 0.48300  0.23300  0.46600  Biso   1.000  O 
  O7       1.0000 0.51700  0.76700  0.53400  Biso   1.000  O 
  O8       1.0000 0.13300  0.88300  0.76500  Biso   1.000  O 
  O9       1.0000 0.01700  0.53400  0.76700  Biso   1.000  O 
  O10      1.0000 0.25000  0.23300  0.76700  Biso   1.000  O 
  O11      1.0000 0.63300  0.76500  0.88300  Biso   1.000  O 
  O12      1.0000 0.75000  0.11700  0.88300  Biso   1.000  O 
