data_image0
_cell_length_a       6.53963
_cell_length_b       4.67463
_cell_length_c       4.67463
_cell_angle_alpha    90
_cell_angle_beta     110.941
_cell_angle_gamma    110.941

_symmetry_space_group_name_H-M    "P 1"
_symmetry_int_tables_number       1

loop_
  _symmetry_equiv_pos_as_xyz
  'x, y, z'

loop_
  _atom_site_label
  _atom_site_occupancy
  _atom_site_fract_x
  _atom_site_fract_y
  _atom_site_fract_z
  _atom_site_thermal_displace_type
  _atom_site_B_iso_or_equiv
  _atom_site_type_symbol
  Br1      1.0000 0.69500  0.34700  0.34700  Biso   1.000  Br
  Br2      1.0000 0.30500  0.65300  0.65300  Biso   1.000  Br
  Hg1      1.0000 0.23300  0.11600  0.11600  Biso   1.000  Hg
  Hg2      1.0000 0.76700  0.88400  0.88400  Biso   1.000  Hg
