data_image0
_cell_length_a       5.08026
_cell_length_b       5.08007
_cell_length_c       8.2904
_cell_angle_alpha    90
_cell_angle_beta     90
_cell_angle_gamma    120.001

_symmetry_space_group_name_H-M    "P 1"
_symmetry_int_tables_number       1

loop_
  _symmetry_equiv_pos_as_xyz
  'x, y, z'

loop_
  _atom_site_label
  _atom_site_occupancy
  _atom_site_fract_x
  _atom_site_fract_y
  _atom_site_fract_z
  _atom_site_thermal_displace_type
  _atom_site_B_iso_or_equiv
  _atom_site_type_symbol
  Ni1      1.0000 0.50000  0.00000  0.00000  Biso   1.000  Ni
  Ni2      1.0000 0.00000  0.50000  0.00000  Biso   1.000  Ni
  Ni3      1.0000 0.50000  0.50000  0.00000  Biso   1.000  Ni
  Ni4      1.0000 0.34300  0.17100  0.25000  Biso   1.000  Ni
  Ni5      1.0000 0.82900  0.17100  0.25000  Biso   1.000  Ni
  Ni6      1.0000 0.82900  0.65700  0.25000  Biso   1.000  Ni
  Ni7      1.0000 0.50000  0.00000  0.50000  Biso   1.000  Ni
  Ni8      1.0000 0.00000  0.50000  0.50000  Biso   1.000  Ni
  Ni9      1.0000 0.50000  0.50000  0.50000  Biso   1.000  Ni
  Ni10     1.0000 0.17100  0.34300  0.75000  Biso   1.000  Ni
  Ni11     1.0000 0.17100  0.82900  0.75000  Biso   1.000  Ni
  Ni12     1.0000 0.65700  0.82900  0.75000  Biso   1.000  Ni
  Ti1      1.0000 0.00000  0.00000  0.00000  Biso   1.000  Ti
  Ti2      1.0000 0.33300  0.66700  0.25000  Biso   1.000  Ti
  Ti3      1.0000 0.00000  0.00000  0.50000  Biso   1.000  Ti
  Ti4      1.0000 0.66700  0.33300  0.75000  Biso   1.000  Ti
