data_image0
_cell_length_a       2.91249
_cell_length_b       2.91822
_cell_length_c       4.18169
_cell_angle_alpha    69.5782
_cell_angle_beta     90
_cell_angle_gamma    90

_symmetry_space_group_name_H-M    "P 1"
_symmetry_int_tables_number       1

loop_
  _symmetry_equiv_pos_as_xyz
  'x, y, z'

loop_
  _atom_site_label
  _atom_site_occupancy
  _atom_site_fract_x
  _atom_site_fract_y
  _atom_site_fract_z
  _atom_site_thermal_displace_type
  _atom_site_B_iso_or_equiv
  _atom_site_type_symbol
  B1       1.0000 0.75000  0.43600  0.12800  Biso   1.000  B 
  B2       1.0000 0.25000  0.56400  0.87200  Biso   1.000  B 
  Cr1      1.0000 0.25000  0.85400  0.29200  Biso   1.000  Cr
  Cr2      1.0000 0.75000  0.14600  0.70800  Biso   1.000  Cr
