data_image0
_cell_length_a       7.31805
_cell_length_b       7.31805
_cell_length_c       13.2117
_cell_angle_alpha    88.607
_cell_angle_beta     91.393
_cell_angle_gamma    108.144

_symmetry_space_group_name_H-M    "P 1"
_symmetry_int_tables_number       1

loop_
  _symmetry_equiv_pos_as_xyz
  'x, y, z'

loop_
  _atom_site_label
  _atom_site_occupancy
  _atom_site_fract_x
  _atom_site_fract_y
  _atom_site_fract_z
  _atom_site_thermal_displace_type
  _atom_site_B_iso_or_equiv
  _atom_site_type_symbol
  H1       1.0000 0.87500  0.88600  0.78200  Biso   1.000  H 
  H2       1.0000 0.11400  0.12500  0.28200  Biso   1.000  H 
  H3       1.0000 0.24400  0.01670  0.58600  Biso   1.000  H 
  H4       1.0000 0.98300  0.75600  0.08580  Biso   1.000  H 
  H5       1.0000 0.48900  0.26300  0.08800  Biso   1.000  H 
  H6       1.0000 0.73700  0.51100  0.58800  Biso   1.000  H 
  H7       1.0000 0.36800  0.40500  0.79200  Biso   1.000  H 
  H8       1.0000 0.59500  0.63200  0.29200  Biso   1.000  H 
  H9       1.0000 0.86900  0.39500  0.89300  Biso   1.000  H 
  H10      1.0000 0.60500  0.13100  0.39300  Biso   1.000  H 
  H11      1.0000 0.48500  0.76900  0.58500  Biso   1.000  H 
  H12      1.0000 0.23100  0.51500  0.08530  Biso   1.000  H 
  H13      1.0000 0.74200  0.00366  0.09310  Biso   1.000  H 
  H14      1.0000 0.99600  0.25800  0.59300  Biso   1.000  H 
  H15      1.0000 0.37900  0.88800  0.88500  Biso   1.000  H 
  H16      1.0000 0.11200  0.62100  0.38500  Biso   1.000  H 
  K1       1.0000 0.09720  0.62100  0.70100  Biso   1.000  K 
  K2       1.0000 0.37900  0.90300  0.20100  Biso   1.000  K 
  K3       1.0000 0.59300  0.61500  0.97100  Biso   1.000  K 
  K4       1.0000 0.38500  0.40700  0.47100  Biso   1.000  K 
  K5       1.0000 0.60900  0.12300  0.71500  Biso   1.000  K 
  K6       1.0000 0.87700  0.39100  0.21500  Biso   1.000  K 
  K7       1.0000 0.09540  0.12500  0.96800  Biso   1.000  K 
  K8       1.0000 0.87500  0.90500  0.46800  Biso   1.000  K 
  O1       1.0000 0.57100  0.96200  0.90200  Biso   1.000  O 
  O2       1.0000 0.03790  0.42900  0.40200  Biso   1.000  O 
  O3       1.0000 0.22400  0.83300  0.87500  Biso   1.000  O 
  O4       1.0000 0.16700  0.77600  0.37500  Biso   1.000  O 
  O5       1.0000 0.70800  0.32600  0.89200  Biso   1.000  O 
  O6       1.0000 0.67400  0.29200  0.39200  Biso   1.000  O 
  O7       1.0000 0.78200  0.15200  0.04480  Biso   1.000  O 
  O8       1.0000 0.84800  0.21800  0.54500  Biso   1.000  O 
  O9       1.0000 0.95600  0.07170  0.77600  Biso   1.000  O 
  O10      1.0000 0.92800  0.04450  0.27600  Biso   1.000  O 
  O11      1.0000 0.44700  0.16500  0.01590  Biso   1.000  O 
  O12      1.0000 0.83500  0.55300  0.51600  Biso   1.000  O 
  O13      1.0000 0.14400  0.30200  0.64000  Biso   1.000  O 
  O14      1.0000 0.69800  0.85600  0.14000  Biso   1.000  O 
  O15      1.0000 0.20500  0.98700  0.67300  Biso   1.000  O 
  O16      1.0000 0.01340  0.79500  0.17300  Biso   1.000  O 
  O17      1.0000 0.31000  0.24700  0.80100  Biso   1.000  O 
  O18      1.0000 0.75300  0.69000  0.30100  Biso   1.000  O 
  O19      1.0000 0.44200  0.59300  0.77900  Biso   1.000  O 
  O20      1.0000 0.40700  0.55800  0.27900  Biso   1.000  O 
  O21      1.0000 0.63700  0.46800  0.66100  Biso   1.000  O 
  O22      1.0000 0.53200  0.36300  0.16100  Biso   1.000  O 
  O23      1.0000 0.80700  0.72700  0.78500  Biso   1.000  O 
  O24      1.0000 0.27300  0.19300  0.28500  Biso   1.000  O 
  O25      1.0000 0.27400  0.66100  0.03430  Biso   1.000  O 
  O26      1.0000 0.33900  0.72600  0.53400  Biso   1.000  O 
  O27      1.0000 0.95600  0.71800  0.99800  Biso   1.000  O 
  O28      1.0000 0.28200  0.04400  0.49800  Biso   1.000  O 
  O29      1.0000 0.62700  0.80700  0.63600  Biso   1.000  O 
  O30      1.0000 0.19300  0.37300  0.13600  Biso   1.000  O 
  O31      1.0000 0.05120  0.47500  0.89500  Biso   1.000  O 
  O32      1.0000 0.52500  0.94900  0.39500  Biso   1.000  O 
  P1       1.0000 0.62600  0.14700  0.96200  Biso   1.000  P 
  P2       1.0000 0.85300  0.37400  0.46200  Biso   1.000  P 
  P3       1.0000 0.12400  0.66700  0.95000  Biso   1.000  P 
  P4       1.0000 0.33300  0.87600  0.45000  Biso   1.000  P 
  P5       1.0000 0.14900  0.15000  0.72300  Biso   1.000  P 
  P6       1.0000 0.85000  0.85100  0.22300  Biso   1.000  P 
  P7       1.0000 0.62400  0.64800  0.71600  Biso   1.000  P 
  P8       1.0000 0.35200  0.37600  0.21600  Biso   1.000  P 
