data_image0
_cell_length_a       12.354
_cell_length_b       4.42693
_cell_length_c       12.0004
_cell_angle_alpha    90
_cell_angle_beta     90
_cell_angle_gamma    90

_symmetry_space_group_name_H-M    "P 1"
_symmetry_int_tables_number       1

loop_
  _symmetry_equiv_pos_as_xyz
  'x, y, z'

loop_
  _atom_site_label
  _atom_site_occupancy
  _atom_site_fract_x
  _atom_site_fract_y
  _atom_site_fract_z
  _atom_site_thermal_displace_type
  _atom_site_B_iso_or_equiv
  _atom_site_type_symbol
  Nd1      1.0000 0.19600  0.25000  0.00187  Biso   1.000  Nd
  Nd2      1.0000 0.51600  0.25000  0.18800  Biso   1.000  Nd
  Nd3      1.0000 0.01620  0.25000  0.31200  Biso   1.000  Nd
  Nd4      1.0000 0.69600  0.25000  0.49800  Biso   1.000  Nd
  Nd5      1.0000 0.30400  0.75000  0.50200  Biso   1.000  Nd
  Nd6      1.0000 0.98400  0.75000  0.68800  Biso   1.000  Nd
  Nd7      1.0000 0.48400  0.75000  0.81200  Biso   1.000  Nd
  Nd8      1.0000 0.80400  0.75000  0.99800  Biso   1.000  Nd
  Te1      1.0000 0.38000  0.75000  0.05680  Biso   1.000  Te
  Te2      1.0000 0.04200  0.75000  0.12300  Biso   1.000  Te
  Te3      1.0000 0.77400  0.25000  0.19900  Biso   1.000  Te
  Te4      1.0000 0.27400  0.25000  0.30100  Biso   1.000  Te
  Te5      1.0000 0.54200  0.75000  0.37700  Biso   1.000  Te
  Te6      1.0000 0.88000  0.75000  0.44300  Biso   1.000  Te
  Te7      1.0000 0.12000  0.25000  0.55700  Biso   1.000  Te
  Te8      1.0000 0.45800  0.25000  0.62300  Biso   1.000  Te
  Te9      1.0000 0.72600  0.75000  0.69900  Biso   1.000  Te
  Te10     1.0000 0.22600  0.75000  0.80100  Biso   1.000  Te
  Te11     1.0000 0.95800  0.25000  0.87700  Biso   1.000  Te
  Te12     1.0000 0.62000  0.25000  0.94300  Biso   1.000  Te
