data_image0
_cell_length_a       2.81484
_cell_length_b       4.81616
_cell_length_c       6.89495
_cell_angle_alpha    90
_cell_angle_beta     90
_cell_angle_gamma    73.0086

_symmetry_space_group_name_H-M    "P 1"
_symmetry_int_tables_number       1

loop_
  _symmetry_equiv_pos_as_xyz
  'x, y, z'

loop_
  _atom_site_label
  _atom_site_occupancy
  _atom_site_fract_x
  _atom_site_fract_y
  _atom_site_fract_z
  _atom_site_thermal_displace_type
  _atom_site_B_iso_or_equiv
  _atom_site_type_symbol
  C1       1.0000 0.50000  0.00000  0.00000  Biso   1.000  C 
  C2       1.0000 0.75400  0.49200  0.25000  Biso   1.000  C 
  C3       1.0000 0.50000  0.00000  0.50000  Biso   1.000  C 
  C4       1.0000 0.24600  0.50800  0.75000  Biso   1.000  C 
  Cr1      1.0000 0.14300  0.71300  0.07020  Biso   1.000  Cr
  Cr2      1.0000 0.40100  0.19900  0.25000  Biso   1.000  Cr
  Cr3      1.0000 0.14300  0.71300  0.43000  Biso   1.000  Cr
  Cr4      1.0000 0.85700  0.28700  0.57000  Biso   1.000  Cr
  Cr5      1.0000 0.59900  0.80100  0.75000  Biso   1.000  Cr
  Cr6      1.0000 0.85700  0.28700  0.93000  Biso   1.000  Cr
