data_image0
_cell_length_a       6.74736
_cell_length_b       6.76247
_cell_length_c       6.82809
_cell_angle_alpha    60.3174
_cell_angle_beta     99.1443
_cell_angle_gamma    108.719

_symmetry_space_group_name_H-M    "P 1"
_symmetry_int_tables_number       1

loop_
  _symmetry_equiv_pos_as_xyz
  'x, y, z'

loop_
  _atom_site_label
  _atom_site_occupancy
  _atom_site_fract_x
  _atom_site_fract_y
  _atom_site_fract_z
  _atom_site_thermal_displace_type
  _atom_site_B_iso_or_equiv
  _atom_site_type_symbol
  Ga1      1.0000 0.00349  0.43500  0.16800  Biso   1.000  Ga
  Ga2      1.0000 0.00090  0.74100  0.49500  Biso   1.000  Ga
  Ga3      1.0000 0.50100  0.23600  0.50500  Biso   1.000  Ga
  Ga4      1.0000 0.50300  0.60300  0.83200  Biso   1.000  Ga
  Se1      1.0000 0.61700  0.27300  0.15900  Biso   1.000  Se
  Se2      1.0000 0.14100  0.80600  0.16300  Biso   1.000  Se
  Se3      1.0000 0.61300  0.63600  0.48300  Biso   1.000  Se
  Se4      1.0000 0.11300  0.11900  0.51700  Biso   1.000  Se
  Se5      1.0000 0.64100  0.97000  0.83700  Biso   1.000  Se
  Se6      1.0000 0.11700  0.43100  0.84100  Biso   1.000  Se
