data_image0
_cell_length_a       7.86541
_cell_length_b       10.2949
_cell_length_c       8.15086
_cell_angle_alpha    90
_cell_angle_beta     90.5832
_cell_angle_gamma    90

_symmetry_space_group_name_H-M    "P 1"
_symmetry_int_tables_number       1

loop_
  _symmetry_equiv_pos_as_xyz
  'x, y, z'

loop_
  _atom_site_label
  _atom_site_occupancy
  _atom_site_fract_x
  _atom_site_fract_y
  _atom_site_fract_z
  _atom_site_thermal_displace_type
  _atom_site_B_iso_or_equiv
  _atom_site_type_symbol
  Cl1      1.0000 0.67200  0.61700  0.06280  Biso   1.000  Cl
  Cl2      1.0000 0.63400  0.12400  0.06980  Biso   1.000  Cl
  Cl3      1.0000 0.95500  0.86000  0.12900  Biso   1.000  Cl
  Cl4      1.0000 0.96100  0.39000  0.13900  Biso   1.000  Cl
  Cl5      1.0000 0.23600  0.62400  0.22600  Biso   1.000  Cl
  Cl6      1.0000 0.26400  0.12400  0.27400  Biso   1.000  Cl
  Cl7      1.0000 0.53900  0.89000  0.36100  Biso   1.000  Cl
  Cl8      1.0000 0.54500  0.36000  0.37100  Biso   1.000  Cl
  Cl9      1.0000 0.86600  0.62400  0.43000  Biso   1.000  Cl
  Cl10     1.0000 0.82800  0.11700  0.43700  Biso   1.000  Cl
  Cl11     1.0000 0.17200  0.88300  0.56300  Biso   1.000  Cl
  Cl12     1.0000 0.13400  0.37600  0.57000  Biso   1.000  Cl
  Cl13     1.0000 0.45500  0.64000  0.62900  Biso   1.000  Cl
  Cl14     1.0000 0.46100  0.11000  0.63900  Biso   1.000  Cl
  Cl15     1.0000 0.73600  0.87600  0.72600  Biso   1.000  Cl
  Cl16     1.0000 0.76400  0.37600  0.77400  Biso   1.000  Cl
  Cl17     1.0000 0.03870  0.61000  0.86100  Biso   1.000  Cl
  Cl18     1.0000 0.04500  0.14000  0.87100  Biso   1.000  Cl
  Cl19     1.0000 0.36600  0.87600  0.93000  Biso   1.000  Cl
  Cl20     1.0000 0.32800  0.38300  0.93700  Biso   1.000  Cl
  Nb1      1.0000 0.94700  0.64000  0.16400  Biso   1.000  Nb
  Nb2      1.0000 0.55300  0.14000  0.33600  Biso   1.000  Nb
  Nb3      1.0000 0.44700  0.86000  0.66400  Biso   1.000  Nb
  Nb4      1.0000 0.05290  0.36000  0.83600  Biso   1.000  Nb
