data_image0
_cell_length_a       6.35959
_cell_length_b       6.35959
_cell_length_c       3.73959
_cell_angle_alpha    90
_cell_angle_beta     90
_cell_angle_gamma    120

_symmetry_space_group_name_H-M    "P 1"
_symmetry_int_tables_number       1

loop_
  _symmetry_equiv_pos_as_xyz
  'x, y, z'

loop_
  _atom_site_label
  _atom_site_occupancy
  _atom_site_fract_x
  _atom_site_fract_y
  _atom_site_fract_z
  _atom_site_thermal_displace_type
  _atom_site_B_iso_or_equiv
  _atom_site_type_symbol
  Ni1      1.0000 0.66700  0.33300  0.25000  Biso   1.000  Ni
  Ni2      1.0000 0.33300  0.66700  0.75000  Biso   1.000  Ni
  P1       1.0000 0.42500  0.21200  0.75000  Biso   1.000  P 
  P2       1.0000 0.78800  0.57500  0.75000  Biso   1.000  P 
  P3       1.0000 0.21200  0.78800  0.25000  Biso   1.000  P 
  P4       1.0000 0.57500  0.78800  0.25000  Biso   1.000  P 
  P5       1.0000 0.21200  0.42500  0.25000  Biso   1.000  P 
  P6       1.0000 0.78800  0.21200  0.75000  Biso   1.000  P 
