data_image0
_cell_length_a       7.63263
_cell_length_b       7.63234
_cell_length_c       7.55713
_cell_angle_alpha    90
_cell_angle_beta     90
_cell_angle_gamma    120.001

_symmetry_space_group_name_H-M    "P 1"
_symmetry_int_tables_number       1

loop_
  _symmetry_equiv_pos_as_xyz
  'x, y, z'

loop_
  _atom_site_label
  _atom_site_occupancy
  _atom_site_fract_x
  _atom_site_fract_y
  _atom_site_fract_z
  _atom_site_thermal_displace_type
  _atom_site_B_iso_or_equiv
  _atom_site_type_symbol
  Al1      1.0000 0.19500  0.39000  0.55900  Biso   1.000  Al
  Al2      1.0000 0.19500  0.80500  0.55900  Biso   1.000  Al
  Al3      1.0000 0.19500  0.80500  0.94100  Biso   1.000  Al
  Al4      1.0000 0.61000  0.80500  0.94100  Biso   1.000  Al
  Al5      1.0000 0.19500  0.39000  0.94100  Biso   1.000  Al
  Al6      1.0000 0.80500  0.61000  0.44100  Biso   1.000  Al
  Al7      1.0000 0.39000  0.19500  0.44100  Biso   1.000  Al
  Al8      1.0000 0.80500  0.19500  0.44100  Biso   1.000  Al
  Al9      1.0000 0.00001  0.00001  0.00011  Biso   1.000  Al
  Al10     1.0000 0.00001  0.00001  0.50000  Biso   1.000  Al
  Al11     1.0000 0.93500  0.46700  0.75000  Biso   1.000  Al
  Al12     1.0000 0.06520  0.53300  0.25000  Biso   1.000  Al
  Al13     1.0000 0.53300  0.46700  0.75000  Biso   1.000  Al
  Al14     1.0000 0.53300  0.06520  0.75000  Biso   1.000  Al
  Al15     1.0000 0.46700  0.93500  0.25000  Biso   1.000  Al
  Al16     1.0000 0.46700  0.53300  0.25000  Biso   1.000  Al
  Al17     1.0000 0.39000  0.19500  0.05890  Biso   1.000  Al
  Al18     1.0000 0.61000  0.80500  0.55900  Biso   1.000  Al
  Al19     1.0000 0.80500  0.19500  0.05890  Biso   1.000  Al
  Al20     1.0000 0.80500  0.61000  0.05890  Biso   1.000  Al
  Co1      1.0000 0.66700  0.33300  0.25000  Biso   1.000  Co
  Co2      1.0000 0.33300  0.66700  0.75000  Biso   1.000  Co
  Co3      1.0000 0.25500  0.12700  0.75000  Biso   1.000  Co
  Co4      1.0000 0.74500  0.87300  0.25000  Biso   1.000  Co
  Co5      1.0000 0.87300  0.12700  0.75000  Biso   1.000  Co
  Co6      1.0000 0.87300  0.74500  0.75000  Biso   1.000  Co
  Co7      1.0000 0.12700  0.25400  0.25000  Biso   1.000  Co
  Co8      1.0000 0.12700  0.87300  0.25000  Biso   1.000  Co
