data_image0
_cell_length_a       6.40982
_cell_length_b       7.453
_cell_length_c       6.24032
_cell_angle_alpha    90
_cell_angle_beta     109.021
_cell_angle_gamma    90

_symmetry_space_group_name_H-M    "P 1"
_symmetry_int_tables_number       1

loop_
  _symmetry_equiv_pos_as_xyz
  'x, y, z'

loop_
  _atom_site_label
  _atom_site_occupancy
  _atom_site_fract_x
  _atom_site_fract_y
  _atom_site_fract_z
  _atom_site_thermal_displace_type
  _atom_site_B_iso_or_equiv
  _atom_site_type_symbol
  Cl1      1.0000 0.27600  0.60700  0.00190  Biso   1.000  Cl
  Cl2      1.0000 0.24700  0.13900  0.02450  Biso   1.000  Cl
  Cl3      1.0000 0.75300  0.13900  0.47600  Biso   1.000  Cl
  Cl4      1.0000 0.72400  0.60700  0.49800  Biso   1.000  Cl
  Cl5      1.0000 0.27600  0.39300  0.50200  Biso   1.000  Cl
  Cl6      1.0000 0.24700  0.86100  0.52400  Biso   1.000  Cl
  Cl7      1.0000 0.75300  0.86100  0.97600  Biso   1.000  Cl
  Cl8      1.0000 0.72400  0.39300  0.99800  Biso   1.000  Cl
  Hf1      1.0000 0.50000  0.33800  0.25000  Biso   1.000  Hf
  Hf2      1.0000 0.50000  0.66200  0.75000  Biso   1.000  Hf
