data_image0
_cell_length_a       6.27915
_cell_length_b       6.49339
_cell_length_c       4.15916
_cell_angle_alpha    90
_cell_angle_beta     90
_cell_angle_gamma    90

_symmetry_space_group_name_H-M    "P 1"
_symmetry_int_tables_number       1

loop_
  _symmetry_equiv_pos_as_xyz
  'x, y, z'

loop_
  _atom_site_label
  _atom_site_occupancy
  _atom_site_fract_x
  _atom_site_fract_y
  _atom_site_fract_z
  _atom_site_thermal_displace_type
  _atom_site_B_iso_or_equiv
  _atom_site_type_symbol
  Ca1      1.0000 0.00000  0.00000  0.00000  Biso   1.000  Ca
  Ca2      1.0000 0.50000  0.50000  0.50000  Biso   1.000  Ca
  Cl1      1.0000 0.27700  0.32700  0.00000  Biso   1.000  Cl
  Cl2      1.0000 0.72300  0.67300  0.00000  Biso   1.000  Cl
  Cl3      1.0000 0.77700  0.17300  0.50000  Biso   1.000  Cl
  Cl4      1.0000 0.22300  0.82700  0.50000  Biso   1.000  Cl
