data_image0
_cell_length_a       7.33495
_cell_length_b       11.6178
_cell_length_c       11.4927
_cell_angle_alpha    89.9984
_cell_angle_beta     90.8864
_cell_angle_gamma    90.001

_symmetry_space_group_name_H-M    "P 1"
_symmetry_int_tables_number       1

loop_
  _symmetry_equiv_pos_as_xyz
  'x, y, z'

loop_
  _atom_site_label
  _atom_site_occupancy
  _atom_site_fract_x
  _atom_site_fract_y
  _atom_site_fract_z
  _atom_site_thermal_displace_type
  _atom_site_B_iso_or_equiv
  _atom_site_type_symbol
  O1       1.0000 0.60800  0.39900  0.00000  Biso   1.000  O 
  O2       1.0000 0.39200  0.60100  0.00000  Biso   1.000  O 
  O3       1.0000 0.86600  0.58500  0.00837  Biso   1.000  O 
  O4       1.0000 0.87300  0.22200  0.01010  Biso   1.000  O 
  O5       1.0000 0.27500  1.00000  0.10000  Biso   1.000  O 
  O6       1.0000 0.54000  0.13100  0.10500  Biso   1.000  O 
  O7       1.0000 0.23300  0.20500  0.12600  Biso   1.000  O 
  O8       1.0000 0.13700  0.67300  0.20900  Biso   1.000  O 
  O9       1.0000 0.62800  0.59100  0.21800  Biso   1.000  O 
  O10      1.0000 0.37200  0.09080  0.28200  Biso   1.000  O 
  O11      1.0000 0.86300  0.17300  0.29100  Biso   1.000  O 
  O12      1.0000 0.76700  0.70500  0.37400  Biso   1.000  O 
  O13      1.0000 0.46000  0.63100  0.39500  Biso   1.000  O 
  O14      1.0000 0.72500  0.50000  0.40000  Biso   1.000  O 
  O15      1.0000 0.12700  0.72200  0.49000  Biso   1.000  O 
  O16      1.0000 0.13400  0.08500  0.49200  Biso   1.000  O 
  O17      1.0000 0.60800  0.10100  0.50000  Biso   1.000  O 
  O18      1.0000 0.39200  0.89900  0.50000  Biso   1.000  O 
  O19      1.0000 0.86600  0.91500  0.50800  Biso   1.000  O 
  O20      1.0000 0.87300  0.27800  0.51000  Biso   1.000  O 
  O21      1.0000 0.27500  0.50000  0.60000  Biso   1.000  O 
  O22      1.0000 0.54000  0.36900  0.60500  Biso   1.000  O 
  O23      1.0000 0.23300  0.29500  0.62600  Biso   1.000  O 
  O24      1.0000 0.13700  0.82700  0.70900  Biso   1.000  O 
  O25      1.0000 0.62800  0.90900  0.71800  Biso   1.000  O 
  O26      1.0000 0.37200  0.40900  0.78200  Biso   1.000  O 
  O27      1.0000 0.86300  0.32700  0.79100  Biso   1.000  O 
  O28      1.0000 0.76700  0.79500  0.87400  Biso   1.000  O 
  O29      1.0000 0.46000  0.86900  0.89500  Biso   1.000  O 
  O30      1.0000 0.72500  0.00026  0.90000  Biso   1.000  O 
  O31      1.0000 0.12700  0.77800  0.99000  Biso   1.000  O 
  O32      1.0000 0.13400  0.41500  0.99200  Biso   1.000  O 
  Pb1      1.0000 0.87800  0.40800  0.11200  Biso   1.000  Pb
  Pb2      1.0000 0.88800  0.74700  0.11500  Biso   1.000  Pb
  Pb3      1.0000 0.37300  0.76300  0.11500  Biso   1.000  Pb
  Pb4      1.0000 0.37300  0.43900  0.12000  Biso   1.000  Pb
  Pb5      1.0000 0.86800  0.07280  0.12800  Biso   1.000  Pb
  Pb6      1.0000 0.13200  0.57300  0.37200  Biso   1.000  Pb
  Pb7      1.0000 0.62700  0.93900  0.38000  Biso   1.000  Pb
  Pb8      1.0000 0.62700  0.26300  0.38500  Biso   1.000  Pb
  Pb9      1.0000 0.11200  0.24700  0.38500  Biso   1.000  Pb
  Pb10     1.0000 0.12200  0.90800  0.38800  Biso   1.000  Pb
  Pb11     1.0000 0.87800  0.09210  0.61200  Biso   1.000  Pb
  Pb12     1.0000 0.88800  0.75300  0.61500  Biso   1.000  Pb
  Pb13     1.0000 0.37300  0.73700  0.61500  Biso   1.000  Pb
  Pb14     1.0000 0.37300  0.06100  0.62000  Biso   1.000  Pb
  Pb15     1.0000 0.86800  0.42700  0.62800  Biso   1.000  Pb
  Pb16     1.0000 0.13200  0.92700  0.87200  Biso   1.000  Pb
  Pb17     1.0000 0.62700  0.56100  0.88000  Biso   1.000  Pb
  Pb18     1.0000 0.62700  0.23700  0.88500  Biso   1.000  Pb
  Pb19     1.0000 0.11200  0.25300  0.88500  Biso   1.000  Pb
  Pb20     1.0000 0.12200  0.59200  0.88800  Biso   1.000  Pb
  S1       1.0000 0.35600  0.10500  0.15200  Biso   1.000  S 
  S2       1.0000 0.64400  0.60500  0.34800  Biso   1.000  S 
  S3       1.0000 0.35600  0.39500  0.65200  Biso   1.000  S 
  S4       1.0000 0.64400  0.89500  0.84800  Biso   1.000  S 
