data_image0
_cell_length_a       6.61984
_cell_length_b       4.76452
_cell_length_c       4.80668
_cell_angle_alpha    90
_cell_angle_beta     89.8766
_cell_angle_gamma    90

_symmetry_space_group_name_H-M    "P 1"
_symmetry_int_tables_number       1

loop_
  _symmetry_equiv_pos_as_xyz
  'x, y, z'

loop_
  _atom_site_label
  _atom_site_occupancy
  _atom_site_fract_x
  _atom_site_fract_y
  _atom_site_fract_z
  _atom_site_thermal_displace_type
  _atom_site_B_iso_or_equiv
  _atom_site_type_symbol
  Hg1      1.0000 0.00012  0.18100  0.27600  Biso   1.000  Hg
  Hg2      1.0000 0.50000  0.81900  0.77600  Biso   1.000  Hg
  O1       1.0000 0.00329  0.71700  0.07030  Biso   1.000  O 
  O2       1.0000 0.67900  0.18700  0.12500  Biso   1.000  O 
  O3       1.0000 0.32400  0.19300  0.12700  Biso   1.000  O 
  O4       1.0000 0.50500  0.63400  0.21800  Biso   1.000  O 
  O5       1.0000 0.50300  0.28300  0.57000  Biso   1.000  O 
  O6       1.0000 0.17900  0.81300  0.62500  Biso   1.000  O 
  O7       1.0000 0.82400  0.80700  0.62700  Biso   1.000  O 
  O8       1.0000 0.00547  0.36600  0.71800  Biso   1.000  O 
  S1       1.0000 0.50300  0.32500  0.26500  Biso   1.000  S 
  S2       1.0000 0.00258  0.67500  0.76500  Biso   1.000  S 
