data_image0
_cell_length_a       5.47389
_cell_length_b       6.79649
_cell_length_c       12.5968
_cell_angle_alpha    90
_cell_angle_beta     90
_cell_angle_gamma    66.2529

_symmetry_space_group_name_H-M    "P 1"
_symmetry_int_tables_number       1

loop_
  _symmetry_equiv_pos_as_xyz
  'x, y, z'

loop_
  _atom_site_label
  _atom_site_occupancy
  _atom_site_fract_x
  _atom_site_fract_y
  _atom_site_fract_z
  _atom_site_thermal_displace_type
  _atom_site_B_iso_or_equiv
  _atom_site_type_symbol
  Mn1      1.0000 0.00000  0.00000  0.00000  Biso   1.000  Mn
  Mn2      1.0000 0.13500  0.73100  0.15100  Biso   1.000  Mn
  Mn3      1.0000 0.63500  0.73100  0.34900  Biso   1.000  Mn
  Mn4      1.0000 0.50000  0.00000  0.50000  Biso   1.000  Mn
  Mn5      1.0000 0.36500  0.26900  0.65100  Biso   1.000  Mn
  Mn6      1.0000 0.86500  0.26900  0.84900  Biso   1.000  Mn
  O1       1.0000 0.34200  0.77800  0.03520  Biso   1.000  O 
  O2       1.0000 0.88000  0.77800  0.03520  Biso   1.000  O 
  O3       1.0000 0.96400  0.07120  0.14800  Biso   1.000  O 
  O4       1.0000 0.28000  0.44100  0.15300  Biso   1.000  O 
  O5       1.0000 0.36900  0.76200  0.25000  Biso   1.000  O 
  O6       1.0000 0.86900  0.76200  0.25000  Biso   1.000  O 
  O7       1.0000 0.78000  0.44100  0.34700  Biso   1.000  O 
  O8       1.0000 0.46400  0.07120  0.35200  Biso   1.000  O 
  O9       1.0000 0.38000  0.77800  0.46500  Biso   1.000  O 
  O10      1.0000 0.84200  0.77800  0.46500  Biso   1.000  O 
  O11      1.0000 0.15800  0.22200  0.53500  Biso   1.000  O 
  O12      1.0000 0.62000  0.22200  0.53500  Biso   1.000  O 
  O13      1.0000 0.53600  0.92900  0.64800  Biso   1.000  O 
  O14      1.0000 0.22000  0.55900  0.65300  Biso   1.000  O 
  O15      1.0000 0.13100  0.23800  0.75000  Biso   1.000  O 
  O16      1.0000 0.63100  0.23800  0.75000  Biso   1.000  O 
  O17      1.0000 0.72000  0.55900  0.84700  Biso   1.000  O 
  O18      1.0000 0.03560  0.92900  0.85200  Biso   1.000  O 
  O19      1.0000 0.12000  0.22200  0.96500  Biso   1.000  O 
  O20      1.0000 0.65800  0.22200  0.96500  Biso   1.000  O 
  Sr1      1.0000 0.76400  0.47100  0.11400  Biso   1.000  Sr
  Sr2      1.0000 0.47200  0.05570  0.14400  Biso   1.000  Sr
  Sr3      1.0000 0.97200  0.05570  0.35600  Biso   1.000  Sr
  Sr4      1.0000 0.26400  0.47100  0.38600  Biso   1.000  Sr
  Sr5      1.0000 0.73600  0.52900  0.61400  Biso   1.000  Sr
  Sr6      1.0000 0.02780  0.94400  0.64400  Biso   1.000  Sr
  Sr7      1.0000 0.52800  0.94400  0.85600  Biso   1.000  Sr
  Sr8      1.0000 0.23600  0.52900  0.88600  Biso   1.000  Sr
