data_image0
_cell_length_a       6.3122
_cell_length_b       6.3122
_cell_length_c       6.3122
_cell_angle_alpha    86.045
_cell_angle_beta     93.955
_cell_angle_gamma    93.955

_symmetry_space_group_name_H-M    "P 1"
_symmetry_int_tables_number       1

loop_
  _symmetry_equiv_pos_as_xyz
  'x, y, z'

loop_
  _atom_site_label
  _atom_site_occupancy
  _atom_site_fract_x
  _atom_site_fract_y
  _atom_site_fract_z
  _atom_site_thermal_displace_type
  _atom_site_B_iso_or_equiv
  _atom_site_type_symbol
  B1       1.0000 0.88300  0.11700  0.11700  Biso   1.000  B 
  B2       1.0000 0.61700  0.38300  0.38300  Biso   1.000  B 
  B3       1.0000 0.38300  0.61700  0.61700  Biso   1.000  B 
  B4       1.0000 0.11700  0.88300  0.88300  Biso   1.000  B 
  Ca1      1.0000 0.25000  0.39100  0.10900  Biso   1.000  Ca
  Ca2      1.0000 0.39100  0.89100  0.25000  Biso   1.000  Ca
  Ca3      1.0000 0.89100  0.75000  0.39100  Biso   1.000  Ca
  Ca4      1.0000 0.10900  0.25000  0.60900  Biso   1.000  Ca
  Ca5      1.0000 0.60900  0.10900  0.75000  Biso   1.000  Ca
  Ca6      1.0000 0.75000  0.60900  0.89100  Biso   1.000  Ca
  O1       1.0000 0.10200  0.71800  0.03900  Biso   1.000  O 
  O2       1.0000 0.71800  0.96100  0.10200  Biso   1.000  O 
  O3       1.0000 0.60200  0.53900  0.21800  Biso   1.000  O 
  O4       1.0000 0.03900  0.10200  0.28200  Biso   1.000  O 
  O5       1.0000 0.46100  0.21800  0.39800  Biso   1.000  O 
  O6       1.0000 0.21800  0.60200  0.46100  Biso   1.000  O 
  O7       1.0000 0.78200  0.39800  0.53900  Biso   1.000  O 
  O8       1.0000 0.53900  0.78200  0.60200  Biso   1.000  O 
  O9       1.0000 0.96100  0.89800  0.71800  Biso   1.000  O 
  O10      1.0000 0.39800  0.46100  0.78200  Biso   1.000  O 
  O11      1.0000 0.28200  0.03900  0.89800  Biso   1.000  O 
  O12      1.0000 0.89800  0.28200  0.96100  Biso   1.000  O 
