data_image0
_cell_length_a       7.72327
_cell_length_b       7.72327
_cell_length_c       7.72327
_cell_angle_alpha    90
_cell_angle_beta     90
_cell_angle_gamma    90

_symmetry_space_group_name_H-M    "P 1"
_symmetry_int_tables_number       1

loop_
  _symmetry_equiv_pos_as_xyz
  'x, y, z'

loop_
  _atom_site_label
  _atom_site_occupancy
  _atom_site_fract_x
  _atom_site_fract_y
  _atom_site_fract_z
  _atom_site_thermal_displace_type
  _atom_site_B_iso_or_equiv
  _atom_site_type_symbol
  N1       1.0000 0.84200  0.34200  0.15800  Biso   1.000  N 
  N2       1.0000 0.65800  0.84200  0.15800  Biso   1.000  N 
  N3       1.0000 0.34200  0.34200  0.34200  Biso   1.000  N 
  N4       1.0000 0.15800  0.84200  0.34200  Biso   1.000  N 
  N5       1.0000 0.84200  0.15800  0.65800  Biso   1.000  N 
  N6       1.0000 0.65800  0.65800  0.65800  Biso   1.000  N 
  N7       1.0000 0.34200  0.15800  0.84200  Biso   1.000  N 
  N8       1.0000 0.15800  0.65800  0.84200  Biso   1.000  N 
  O1       1.0000 0.77000  0.28000  0.02400  Biso   1.000  O 
  O2       1.0000 0.73000  0.78000  0.02400  Biso   1.000  O 
  O3       1.0000 0.97600  0.27000  0.22000  Biso   1.000  O 
  O4       1.0000 0.52400  0.77000  0.22000  Biso   1.000  O 
  O5       1.0000 0.78000  0.47600  0.23000  Biso   1.000  O 
  O6       1.0000 0.72000  0.97600  0.23000  Biso   1.000  O 
  O7       1.0000 0.28000  0.47600  0.27000  Biso   1.000  O 
  O8       1.0000 0.22000  0.97600  0.27000  Biso   1.000  O 
  O9       1.0000 0.47600  0.27000  0.28000  Biso   1.000  O 
  O10      1.0000 0.02400  0.77000  0.28000  Biso   1.000  O 
  O11      1.0000 0.27000  0.28000  0.47600  Biso   1.000  O 
  O12      1.0000 0.23000  0.78000  0.47600  Biso   1.000  O 
  O13      1.0000 0.77000  0.22000  0.52400  Biso   1.000  O 
  O14      1.0000 0.73000  0.72000  0.52400  Biso   1.000  O 
  O15      1.0000 0.97600  0.23000  0.72000  Biso   1.000  O 
  O16      1.0000 0.52400  0.73000  0.72000  Biso   1.000  O 
  O17      1.0000 0.78000  0.02400  0.73000  Biso   1.000  O 
  O18      1.0000 0.72000  0.52400  0.73000  Biso   1.000  O 
  O19      1.0000 0.28000  0.02400  0.77000  Biso   1.000  O 
  O20      1.0000 0.22000  0.52400  0.77000  Biso   1.000  O 
  O21      1.0000 0.47600  0.23000  0.78000  Biso   1.000  O 
  O22      1.0000 0.02400  0.73000  0.78000  Biso   1.000  O 
  O23      1.0000 0.27000  0.22000  0.97600  Biso   1.000  O 
  O24      1.0000 0.23000  0.72000  0.97600  Biso   1.000  O 
  Pb1      1.0000 0.00000  0.00000  0.00000  Biso   1.000  Pb
  Pb2      1.0000 0.50000  0.50000  0.00000  Biso   1.000  Pb
  Pb3      1.0000 0.50000  0.00000  0.50000  Biso   1.000  Pb
  Pb4      1.0000 0.00000  0.50000  0.50000  Biso   1.000  Pb
