data_image0
_cell_length_a       7.34697
_cell_length_b       7.34697
_cell_length_c       7.34697
_cell_angle_alpha    120
_cell_angle_beta     90
_cell_angle_gamma    120

_symmetry_space_group_name_H-M    "P 1"
_symmetry_int_tables_number       1

loop_
  _symmetry_equiv_pos_as_xyz
  'x, y, z'

loop_
  _atom_site_label
  _atom_site_occupancy
  _atom_site_fract_x
  _atom_site_fract_y
  _atom_site_fract_z
  _atom_site_thermal_displace_type
  _atom_site_B_iso_or_equiv
  _atom_site_type_symbol
  C1       1.0000 0.27600  0.00000  0.27600  Biso   1.000  C 
  C2       1.0000 0.27600  0.55100  0.27600  Biso   1.000  C 
  C3       1.0000 0.72400  0.00000  0.27600  Biso   1.000  C 
  C4       1.0000 0.27600  0.00000  0.72400  Biso   1.000  C 
  C5       1.0000 0.72400  0.00000  0.72400  Biso   1.000  C 
  C6       1.0000 0.72400  0.44900  0.72400  Biso   1.000  C 
  Mn1      1.0000 0.00000  0.00000  0.00000  Biso   1.000  Mn
  Mn2      1.0000 0.33400  0.00000  0.00000  Biso   1.000  Mn
  Mn3      1.0000 0.66600  0.00000  0.00000  Biso   1.000  Mn
  Mn4      1.0000 0.00000  0.33400  0.00000  Biso   1.000  Mn
  Mn5      1.0000 0.33400  0.33400  0.00000  Biso   1.000  Mn
  Mn6      1.0000 0.00000  0.66600  0.00000  Biso   1.000  Mn
  Mn7      1.0000 0.66600  0.66600  0.00000  Biso   1.000  Mn
  Mn8      1.0000 0.38200  0.76400  0.14600  Biso   1.000  Mn
  Mn9      1.0000 0.75000  0.50000  0.25000  Biso   1.000  Mn
  Mn10     1.0000 0.00000  0.00000  0.33400  Biso   1.000  Mn
  Mn11     1.0000 0.00000  0.33400  0.33400  Biso   1.000  Mn
  Mn12     1.0000 0.33400  0.33400  0.33400  Biso   1.000  Mn
  Mn13     1.0000 0.61800  0.23600  0.38200  Biso   1.000  Mn
  Mn14     1.0000 0.14600  0.76400  0.38200  Biso   1.000  Mn
  Mn15     1.0000 0.61800  0.76400  0.38200  Biso   1.000  Mn
  Mn16     1.0000 0.38200  0.23600  0.61800  Biso   1.000  Mn
  Mn17     1.0000 0.85400  0.23600  0.61800  Biso   1.000  Mn
  Mn18     1.0000 0.38200  0.76400  0.61800  Biso   1.000  Mn
  Mn19     1.0000 0.00000  0.00000  0.66600  Biso   1.000  Mn
  Mn20     1.0000 0.00000  0.66600  0.66600  Biso   1.000  Mn
  Mn21     1.0000 0.66600  0.66600  0.66600  Biso   1.000  Mn
  Mn22     1.0000 0.25000  0.50000  0.75000  Biso   1.000  Mn
  Mn23     1.0000 0.61800  0.23600  0.85400  Biso   1.000  Mn
