data_image0
_cell_length_a       5.20325
_cell_length_b       5.20325
_cell_length_c       6.75234
_cell_angle_alpha    112.662
_cell_angle_beta     112.662
_cell_angle_gamma    90

_symmetry_space_group_name_H-M    "P 1"
_symmetry_int_tables_number       1

loop_
  _symmetry_equiv_pos_as_xyz
  'x, y, z'

loop_
  _atom_site_label
  _atom_site_occupancy
  _atom_site_fract_x
  _atom_site_fract_y
  _atom_site_fract_z
  _atom_site_thermal_displace_type
  _atom_site_B_iso_or_equiv
  _atom_site_type_symbol
  Ca1      1.0000 0.00000  0.00000  0.00000  Biso   1.000  Ca
  Ca2      1.0000 0.25000  0.75000  0.50000  Biso   1.000  Ca
  Mo1      1.0000 0.50000  0.50000  0.00000  Biso   1.000  Mo
  Mo2      1.0000 0.75000  0.25000  0.50000  Biso   1.000  Mo
  O1       1.0000 0.83200  0.43300  0.17300  Biso   1.000  O 
  O2       1.0000 0.34100  0.73900  0.17300  Biso   1.000  O 
  O3       1.0000 0.90900  0.01070  0.32700  Biso   1.000  O 
  O4       1.0000 0.41800  0.31700  0.32700  Biso   1.000  O 
  O5       1.0000 0.68300  0.09060  0.67300  Biso   1.000  O 
  O6       1.0000 0.98900  0.58200  0.67300  Biso   1.000  O 
  O7       1.0000 0.26100  0.16800  0.82700  Biso   1.000  O 
  O8       1.0000 0.56700  0.65900  0.82700  Biso   1.000  O 
