data_image0
_cell_length_a       12.5409
_cell_length_b       4.56554
_cell_length_c       16.8553
_cell_angle_alpha    90
_cell_angle_beta     125.83
_cell_angle_gamma    90

_symmetry_space_group_name_H-M    "P 1"
_symmetry_int_tables_number       1

loop_
  _symmetry_equiv_pos_as_xyz
  'x, y, z'

loop_
  _atom_site_label
  _atom_site_occupancy
  _atom_site_fract_x
  _atom_site_fract_y
  _atom_site_fract_z
  _atom_site_thermal_displace_type
  _atom_site_B_iso_or_equiv
  _atom_site_type_symbol
  O1       1.0000 0.28300  0.62600  0.71700  Biso   1.000  O 
  O2       1.0000 0.71700  0.12600  0.78300  Biso   1.000  O 
  O3       1.0000 0.71700  0.37400  0.28300  Biso   1.000  O 
  O4       1.0000 0.28300  0.87400  0.21700  Biso   1.000  O 
  O5       1.0000 0.21400  0.44400  0.56100  Biso   1.000  O 
  O6       1.0000 0.78600  0.94400  0.93900  Biso   1.000  O 
  O7       1.0000 0.78600  0.55600  0.43900  Biso   1.000  O 
  O8       1.0000 0.21400  0.05640  0.06120  Biso   1.000  O 
  O9       1.0000 0.13900  0.92400  0.57500  Biso   1.000  O 
  O10      1.0000 0.86100  0.42400  0.92500  Biso   1.000  O 
  O11      1.0000 0.86100  0.07600  0.42500  Biso   1.000  O 
  O12      1.0000 0.13900  0.57600  0.07500  Biso   1.000  O 
  O13      1.0000 0.05510  0.48600  0.59900  Biso   1.000  O 
  O14      1.0000 0.94500  0.98600  0.90100  Biso   1.000  O 
  O15      1.0000 0.94500  0.51400  0.40100  Biso   1.000  O 
  O16      1.0000 0.05510  0.01430  0.09920  Biso   1.000  O 
  O17      1.0000 0.15800  0.99200  0.31800  Biso   1.000  O 
  O18      1.0000 0.84200  0.49200  0.18200  Biso   1.000  O 
  O19      1.0000 0.84200  0.00767  0.68200  Biso   1.000  O 
  O20      1.0000 0.15800  0.50800  0.81800  Biso   1.000  O 
  O21      1.0000 0.12500  0.56800  0.38100  Biso   1.000  O 
  O22      1.0000 0.87500  0.06810  0.11900  Biso   1.000  O 
  O23      1.0000 0.87500  0.43200  0.61900  Biso   1.000  O 
  O24      1.0000 0.12500  0.93200  0.88100  Biso   1.000  O 
  O25      1.0000 0.31400  0.57700  0.37800  Biso   1.000  O 
  O26      1.0000 0.68600  0.07750  0.12200  Biso   1.000  O 
  O27      1.0000 0.68600  0.42300  0.62200  Biso   1.000  O 
  O28      1.0000 0.31400  0.92300  0.87800  Biso   1.000  O 
  O29      1.0000 0.10100  0.53300  0.22700  Biso   1.000  O 
  O30      1.0000 0.89900  0.03320  0.27300  Biso   1.000  O 
  O31      1.0000 0.89900  0.46700  0.77300  Biso   1.000  O 
  O32      1.0000 0.10100  0.96700  0.72700  Biso   1.000  O 
  O33      1.0000 0.45800  0.09650  0.40700  Biso   1.000  O 
  O34      1.0000 0.54200  0.59600  0.09350  Biso   1.000  O 
  O35      1.0000 0.54200  0.90400  0.59300  Biso   1.000  O 
  O36      1.0000 0.45800  0.40400  0.90700  Biso   1.000  O 
  O37      1.0000 0.68800  0.98000  0.49400  Biso   1.000  O 
  O38      1.0000 0.31200  0.48000  0.00622  Biso   1.000  O 
  O39      1.0000 0.31200  0.01960  0.50600  Biso   1.000  O 
  O40      1.0000 0.68800  0.52000  0.99400  Biso   1.000  O 
  O41      1.0000 0.53300  0.62300  0.38600  Biso   1.000  O 
  O42      1.0000 0.46700  0.12300  0.11400  Biso   1.000  O 
  O43      1.0000 0.46700  0.37700  0.61400  Biso   1.000  O 
  O44      1.0000 0.53300  0.87700  0.88600  Biso   1.000  O 
  O45      1.0000 0.55000  0.07630  0.31700  Biso   1.000  O 
  O46      1.0000 0.45000  0.57600  0.18300  Biso   1.000  O 
  O47      1.0000 0.45000  0.92400  0.68300  Biso   1.000  O 
  O48      1.0000 0.55000  0.42400  0.81700  Biso   1.000  O 
  S1       1.0000 0.17100  0.62000  0.61100  Biso   1.000  S 
  S2       1.0000 0.82900  0.12000  0.88900  Biso   1.000  S 
  S3       1.0000 0.82900  0.38000  0.38900  Biso   1.000  S 
  S4       1.0000 0.17100  0.88000  0.11100  Biso   1.000  S 
  S5       1.0000 0.17400  0.67400  0.32400  Biso   1.000  S 
  S6       1.0000 0.82600  0.17400  0.17600  Biso   1.000  S 
  S7       1.0000 0.82600  0.32600  0.67600  Biso   1.000  S 
  S8       1.0000 0.17400  0.82600  0.82400  Biso   1.000  S 
  S9       1.0000 0.55900  0.94600  0.40100  Biso   1.000  S 
  S10      1.0000 0.44100  0.44600  0.09900  Biso   1.000  S 
  S11      1.0000 0.44100  0.05420  0.59900  Biso   1.000  S 
  S12      1.0000 0.55900  0.55400  0.90100  Biso   1.000  S 
  Sb1      1.0000 0.09960  0.15800  0.42900  Biso   1.000  Sb
  Sb2      1.0000 0.90000  0.65800  0.07090  Biso   1.000  Sb
  Sb3      1.0000 0.90000  0.84200  0.57100  Biso   1.000  Sb
  Sb4      1.0000 0.09960  0.34200  0.92900  Biso   1.000  Sb
  Sb5      1.0000 0.36000  0.40100  0.28300  Biso   1.000  Sb
  Sb6      1.0000 0.64000  0.90100  0.21700  Biso   1.000  Sb
  Sb7      1.0000 0.64000  0.59900  0.71700  Biso   1.000  Sb
  Sb8      1.0000 0.36000  0.09950  0.78300  Biso   1.000  Sb
