data_image0
_cell_length_a       6.07737
_cell_length_b       4.13375
_cell_length_c       14.4169
_cell_angle_alpha    90
_cell_angle_beta     90
_cell_angle_gamma    90

_symmetry_space_group_name_H-M    "P 1"
_symmetry_int_tables_number       1

loop_
  _symmetry_equiv_pos_as_xyz
  'x, y, z'

loop_
  _atom_site_label
  _atom_site_occupancy
  _atom_site_fract_x
  _atom_site_fract_y
  _atom_site_fract_z
  _atom_site_thermal_displace_type
  _atom_site_B_iso_or_equiv
  _atom_site_type_symbol
  Ca1      1.0000 0.63400  0.25000  0.09270  Biso   1.000  Ca
  Ca2      1.0000 0.13600  0.75000  0.16900  Biso   1.000  Ca
  Ca3      1.0000 0.63600  0.75000  0.33100  Biso   1.000  Ca
  Ca4      1.0000 0.13400  0.25000  0.40700  Biso   1.000  Ca
  Ca5      1.0000 0.86600  0.75000  0.59300  Biso   1.000  Ca
  Ca6      1.0000 0.36400  0.25000  0.66900  Biso   1.000  Ca
  Ca7      1.0000 0.86400  0.25000  0.83100  Biso   1.000  Ca
  Ca8      1.0000 0.36600  0.75000  0.90700  Biso   1.000  Ca
  Cu1      1.0000 0.10900  0.25000  0.01490  Biso   1.000  Cu
  Cu2      1.0000 0.60900  0.25000  0.48500  Biso   1.000  Cu
  Cu3      1.0000 0.39100  0.75000  0.51500  Biso   1.000  Cu
  Cu4      1.0000 0.89100  0.75000  0.98500  Biso   1.000  Cu
