data_image0
_cell_length_a       3.88404
_cell_length_b       3.88404
_cell_length_c       6.81744
_cell_angle_alpha    106.55
_cell_angle_beta     73.4495
_cell_angle_gamma    120

_symmetry_space_group_name_H-M    "P 1"
_symmetry_int_tables_number       1

loop_
  _symmetry_equiv_pos_as_xyz
  'x, y, z'

loop_
  _atom_site_label
  _atom_site_occupancy
  _atom_site_fract_x
  _atom_site_fract_y
  _atom_site_fract_z
  _atom_site_thermal_displace_type
  _atom_site_B_iso_or_equiv
  _atom_site_type_symbol
  F1       1.0000 0.63000  0.37000  0.10900  Biso   1.000  F 
  F2       1.0000 0.37000  0.63000  0.89100  Biso   1.000  F 
  O1       1.0000 0.87900  0.12100  0.36400  Biso   1.000  O 
  O2       1.0000 0.12100  0.87900  0.63600  Biso   1.000  O 
  Sm1      1.0000 0.24200  0.75800  0.27500  Biso   1.000  Sm
  Sm2      1.0000 0.75800  0.24200  0.72500  Biso   1.000  Sm
