data_image0
_cell_length_a       3.90721
_cell_length_b       3.69771
_cell_length_c       7.03688
_cell_angle_alpha    90
_cell_angle_beta     103.289
_cell_angle_gamma    90

_symmetry_space_group_name_H-M    "P 1"
_symmetry_int_tables_number       1

loop_
  _symmetry_equiv_pos_as_xyz
  'x, y, z'

loop_
  _atom_site_label
  _atom_site_occupancy
  _atom_site_fract_x
  _atom_site_fract_y
  _atom_site_fract_z
  _atom_site_thermal_displace_type
  _atom_site_B_iso_or_equiv
  _atom_site_type_symbol
  Mo1      1.0000 0.33200  0.25000  0.28700  Biso   1.000  Mo
  Mo2      1.0000 0.66800  0.75000  0.71300  Biso   1.000  Mo
  O1       1.0000 0.26700  0.25000  0.04080  Biso   1.000  O 
  O2       1.0000 0.89900  0.25000  0.32300  Biso   1.000  O 
  O3       1.0000 0.44100  0.75000  0.36500  Biso   1.000  O 
  O4       1.0000 0.55900  0.25000  0.63500  Biso   1.000  O 
  O5       1.0000 0.10100  0.75000  0.67700  Biso   1.000  O 
  O6       1.0000 0.73300  0.75000  0.95900  Biso   1.000  O 
