data_image0
_cell_length_a       5.83732
_cell_length_b       5.18312
_cell_length_c       3.13835
_cell_angle_alpha    90
_cell_angle_beta     90
_cell_angle_gamma    90

_symmetry_space_group_name_H-M    "P 1"
_symmetry_int_tables_number       1

loop_
  _symmetry_equiv_pos_as_xyz
  'x, y, z'

loop_
  _atom_site_label
  _atom_site_occupancy
  _atom_site_fract_x
  _atom_site_fract_y
  _atom_site_fract_z
  _atom_site_thermal_displace_type
  _atom_site_B_iso_or_equiv
  _atom_site_type_symbol
  Mn1      1.0000 0.19500  0.00413  0.25000  Biso   1.000  Mn
  Mn2      1.0000 0.30500  0.50400  0.25000  Biso   1.000  Mn
  Mn3      1.0000 0.69500  0.49600  0.75000  Biso   1.000  Mn
  Mn4      1.0000 0.80500  0.99600  0.75000  Biso   1.000  Mn
  P1       1.0000 0.56900  0.18600  0.25000  Biso   1.000  P 
  P2       1.0000 0.93100  0.68600  0.25000  Biso   1.000  P 
  P3       1.0000 0.06930  0.31400  0.75000  Biso   1.000  P 
  P4       1.0000 0.43100  0.81400  0.75000  Biso   1.000  P 
