data_image0
_cell_length_a       8.63971
_cell_length_b       7.35235
_cell_length_c       6.9755
_cell_angle_alpha    89.9326
_cell_angle_beta     89.8214
_cell_angle_gamma    102.24

_symmetry_space_group_name_H-M    "P 1"
_symmetry_int_tables_number       1

loop_
  _symmetry_equiv_pos_as_xyz
  'x, y, z'

loop_
  _atom_site_label
  _atom_site_occupancy
  _atom_site_fract_x
  _atom_site_fract_y
  _atom_site_fract_z
  _atom_site_thermal_displace_type
  _atom_site_B_iso_or_equiv
  _atom_site_type_symbol
  Ca1      1.0000 0.13400  0.16200  0.34300  Biso   1.000  Ca
  Ca2      1.0000 0.14300  0.65500  0.34500  Biso   1.000  Ca
  Ca3      1.0000 0.50000  0.00000  0.50000  Biso   1.000  Ca
  Ca4      1.0000 0.50000  0.50000  0.50000  Biso   1.000  Ca
  Ca5      1.0000 0.85700  0.34500  0.65500  Biso   1.000  Ca
  Ca6      1.0000 0.86600  0.83800  0.65700  Biso   1.000  Ca
  H1       1.0000 0.31600  0.45100  0.13500  Biso   1.000  H 
  H2       1.0000 0.68400  0.54900  0.86500  Biso   1.000  H 
  O1       1.0000 0.50000  0.00000  0.00000  Biso   1.000  O 
  O2       1.0000 0.77600  0.24900  0.02040  Biso   1.000  O 
  O3       1.0000 0.77800  0.89000  0.02080  Biso   1.000  O 
  O4       1.0000 0.78200  0.57100  0.14700  Biso   1.000  O 
  O5       1.0000 0.30300  0.44700  0.27400  Biso   1.000  O 
  O6       1.0000 0.29600  0.94900  0.28700  Biso   1.000  O 
  O7       1.0000 0.95800  0.36800  0.33000  Biso   1.000  O 
  O8       1.0000 0.95900  0.86100  0.33100  Biso   1.000  O 
  O9       1.0000 0.64900  0.78900  0.37800  Biso   1.000  O 
  O10      1.0000 0.65000  0.28700  0.37900  Biso   1.000  O 
  O11      1.0000 0.35000  0.71300  0.62100  Biso   1.000  O 
  O12      1.0000 0.35100  0.21100  0.62200  Biso   1.000  O 
  O13      1.0000 0.04080  0.13900  0.66900  Biso   1.000  O 
  O14      1.0000 0.04170  0.63200  0.67000  Biso   1.000  O 
  O15      1.0000 0.70400  0.05050  0.71300  Biso   1.000  O 
  O16      1.0000 0.69700  0.55300  0.72600  Biso   1.000  O 
  O17      1.0000 0.21800  0.42900  0.85300  Biso   1.000  O 
  O18      1.0000 0.22200  0.11000  0.97900  Biso   1.000  O 
  O19      1.0000 0.22400  0.75100  0.98000  Biso   1.000  O 
  Si1      1.0000 0.31600  0.95500  0.05980  Biso   1.000  Si
  Si2      1.0000 0.78900  0.36300  0.22700  Biso   1.000  Si
  Si3      1.0000 0.79000  0.78300  0.22800  Biso   1.000  Si
  Si4      1.0000 0.21000  0.21700  0.77200  Biso   1.000  Si
  Si5      1.0000 0.21100  0.63700  0.77300  Biso   1.000  Si
  Si6      1.0000 0.68400  0.04550  0.94000  Biso   1.000  Si
