data_image0
_cell_length_a       6.11292
_cell_length_b       7.69781
_cell_length_c       10.5319
_cell_angle_alpha    90
_cell_angle_beta     93.3326
_cell_angle_gamma    90

_symmetry_space_group_name_H-M    "P 1"
_symmetry_int_tables_number       1

loop_
  _symmetry_equiv_pos_as_xyz
  'x, y, z'

loop_
  _atom_site_label
  _atom_site_occupancy
  _atom_site_fract_x
  _atom_site_fract_y
  _atom_site_fract_z
  _atom_site_thermal_displace_type
  _atom_site_B_iso_or_equiv
  _atom_site_type_symbol
  Ba1      1.0000 0.76600  0.84400  0.07570  Biso   1.000  Ba
  Ba2      1.0000 0.22600  0.50000  0.19700  Biso   1.000  Ba
  Ba3      1.0000 0.27400  1.00000  0.30300  Biso   1.000  Ba
  Ba4      1.0000 0.73400  0.34400  0.42400  Biso   1.000  Ba
  Ba5      1.0000 0.26600  0.65600  0.57600  Biso   1.000  Ba
  Ba6      1.0000 0.72600  0.00036  0.69700  Biso   1.000  Ba
  Ba7      1.0000 0.77400  0.50000  0.80300  Biso   1.000  Ba
  Ba8      1.0000 0.23400  0.15600  0.92400  Biso   1.000  Ba
  O1       1.0000 0.78500  0.51200  0.06780  Biso   1.000  O 
  O2       1.0000 0.32700  0.82100  0.07490  Biso   1.000  O 
  O3       1.0000 0.99900  0.17300  0.13900  Biso   1.000  O 
  O4       1.0000 0.51800  0.23500  0.18800  Biso   1.000  O 
  O5       1.0000 0.98200  0.73500  0.31200  Biso   1.000  O 
  O6       1.0000 0.50100  0.67300  0.36100  Biso   1.000  O 
  O7       1.0000 0.17300  0.32100  0.42500  Biso   1.000  O 
  O8       1.0000 0.71500  0.01180  0.43200  Biso   1.000  O 
  O9       1.0000 0.28500  0.98800  0.56800  Biso   1.000  O 
  O10      1.0000 0.82700  0.67900  0.57500  Biso   1.000  O 
  O11      1.0000 0.49900  0.32700  0.63900  Biso   1.000  O 
  O12      1.0000 0.01770  0.26500  0.68800  Biso   1.000  O 
  O13      1.0000 0.48200  0.76500  0.81200  Biso   1.000  O 
  O14      1.0000 0.00115  0.82700  0.86100  Biso   1.000  O 
  O15      1.0000 0.67300  0.17900  0.92500  Biso   1.000  O 
  O16      1.0000 0.21500  0.48800  0.93200  Biso   1.000  O 
  Ti1      1.0000 0.74000  0.27900  0.08260  Biso   1.000  Ti
  Ti2      1.0000 0.76000  0.77900  0.41700  Biso   1.000  Ti
  Ti3      1.0000 0.24000  0.22100  0.58300  Biso   1.000  Ti
  Ti4      1.0000 0.26000  0.72100  0.91700  Biso   1.000  Ti
