data_image0
_cell_length_a       5.87533
_cell_length_b       5.87533
_cell_length_c       8.28676
_cell_angle_alpha    110.763
_cell_angle_beta     69.2371
_cell_angle_gamma    120

_symmetry_space_group_name_H-M    "P 1"
_symmetry_int_tables_number       1

loop_
  _symmetry_equiv_pos_as_xyz
  'x, y, z'

loop_
  _atom_site_label
  _atom_site_occupancy
  _atom_site_fract_x
  _atom_site_fract_y
  _atom_site_fract_z
  _atom_site_thermal_displace_type
  _atom_site_B_iso_or_equiv
  _atom_site_type_symbol
  P1       1.0000 0.62300  0.37700  0.13200  Biso   1.000  P 
  P2       1.0000 0.87700  0.12300  0.36800  Biso   1.000  P 
  P3       1.0000 0.12300  0.87700  0.63200  Biso   1.000  P 
  P4       1.0000 0.37700  0.62300  0.86800  Biso   1.000  P 
  S1       1.0000 0.57100  0.75000  0.25000  Biso   1.000  S 
  S2       1.0000 0.25000  0.07150  0.25000  Biso   1.000  S 
  S3       1.0000 0.92900  0.42900  0.25000  Biso   1.000  S 
  S4       1.0000 0.07150  0.57100  0.75000  Biso   1.000  S 
  S5       1.0000 0.75000  0.92900  0.75000  Biso   1.000  S 
  S6       1.0000 0.42900  0.25000  0.75000  Biso   1.000  S 
