data_image0
_cell_length_a       4.20521
_cell_length_b       4.20521
_cell_length_c       4.20521
_cell_angle_alpha    119.108
_cell_angle_beta     104.879
_cell_angle_gamma    104.879

_symmetry_space_group_name_H-M    "P 1"
_symmetry_int_tables_number       1

loop_
  _symmetry_equiv_pos_as_xyz
  'x, y, z'

loop_
  _atom_site_label
  _atom_site_occupancy
  _atom_site_fract_x
  _atom_site_fract_y
  _atom_site_fract_z
  _atom_site_thermal_displace_type
  _atom_site_B_iso_or_equiv
  _atom_site_type_symbol
  B1       1.0000 0.00000  0.25000  0.25000  Biso   1.000  B 
  B2       1.0000 1.00000  0.75000  0.75000  Biso   1.000  B 
  Cr1      1.0000 0.50000  0.33500  0.16500  Biso   1.000  Cr
  Cr2      1.0000 0.16900  0.83500  0.33500  Biso   1.000  Cr
  Cr3      1.0000 0.83100  0.16500  0.66500  Biso   1.000  Cr
  Cr4      1.0000 0.50000  0.66500  0.83500  Biso   1.000  Cr
