data_image0
_cell_length_a       15.2185
_cell_length_b       17.6975
_cell_length_c       4.02325
_cell_angle_alpha    90
_cell_angle_beta     90
_cell_angle_gamma    90

_symmetry_space_group_name_H-M    "P 1"
_symmetry_int_tables_number       1

loop_
  _symmetry_equiv_pos_as_xyz
  'x, y, z'

loop_
  _atom_site_label
  _atom_site_occupancy
  _atom_site_fract_x
  _atom_site_fract_y
  _atom_site_fract_z
  _atom_site_thermal_displace_type
  _atom_site_B_iso_or_equiv
  _atom_site_type_symbol
  Cl1      1.0000 0.13900  0.28300  0.50000  Biso   1.000  Cl
  Cl2      1.0000 0.86100  0.71700  0.50000  Biso   1.000  Cl
  Cl3      1.0000 0.63900  0.21700  0.50000  Biso   1.000  Cl
  Cl4      1.0000 0.36100  0.78300  0.50000  Biso   1.000  Cl
  Cl5      1.0000 0.33200  0.40400  0.50000  Biso   1.000  Cl
  Cl6      1.0000 0.66800  0.59600  0.50000  Biso   1.000  Cl
  Cl7      1.0000 0.83200  0.09600  0.50000  Biso   1.000  Cl
  Cl8      1.0000 0.16800  0.90400  0.50000  Biso   1.000  Cl
  Cl9      1.0000 0.43200  0.11400  0.50000  Biso   1.000  Cl
  Cl10     1.0000 0.56800  0.88600  0.50000  Biso   1.000  Cl
  Cl11     1.0000 0.93200  0.38600  0.50000  Biso   1.000  Cl
  Cl12     1.0000 0.06760  0.61400  0.50000  Biso   1.000  Cl
  Cl13     1.0000 0.11600  0.44900  0.00000  Biso   1.000  Cl
  Cl14     1.0000 0.88400  0.55100  0.00000  Biso   1.000  Cl
  Cl15     1.0000 0.61600  0.05060  0.00000  Biso   1.000  Cl
  Cl16     1.0000 0.38400  0.94900  0.00000  Biso   1.000  Cl
  Cl17     1.0000 0.47100  0.28100  0.00000  Biso   1.000  Cl
  Cl18     1.0000 0.52900  0.71900  0.00000  Biso   1.000  Cl
  Cl19     1.0000 0.97100  0.21900  0.00000  Biso   1.000  Cl
  Cl20     1.0000 0.02930  0.78100  0.00000  Biso   1.000  Cl
  Cl21     1.0000 0.06350  0.08280  0.50000  Biso   1.000  Cl
  Cl22     1.0000 0.93700  0.91700  0.50000  Biso   1.000  Cl
  Cl23     1.0000 0.56300  0.41700  0.50000  Biso   1.000  Cl
  Cl24     1.0000 0.43700  0.58300  0.50000  Biso   1.000  Cl
  O1       1.0000 0.24000  0.14700  0.50000  Biso   1.000  O 
  O2       1.0000 0.76000  0.85300  0.50000  Biso   1.000  O 
  O3       1.0000 0.74000  0.35300  0.50000  Biso   1.000  O 
  O4       1.0000 0.26000  0.64700  0.50000  Biso   1.000  O 
  O5       1.0000 0.28100  0.23900  0.00000  Biso   1.000  O 
  O6       1.0000 0.71900  0.76100  0.00000  Biso   1.000  O 
  O7       1.0000 0.78100  0.26100  0.00000  Biso   1.000  O 
  O8       1.0000 0.21900  0.73900  0.00000  Biso   1.000  O 
  O9       1.0000 0.23000  0.05210  0.00000  Biso   1.000  O 
  O10      1.0000 0.77000  0.94800  0.00000  Biso   1.000  O 
  O11      1.0000 0.73000  0.44800  0.00000  Biso   1.000  O 
  O12      1.0000 0.27000  0.55200  0.00000  Biso   1.000  O 
  U1       1.0000 0.33700  0.24800  0.50000  Biso   1.000  U 
  U2       1.0000 0.66300  0.75200  0.50000  Biso   1.000  U 
  U3       1.0000 0.83700  0.25200  0.50000  Biso   1.000  U 
  U4       1.0000 0.16300  0.74800  0.50000  Biso   1.000  U 
  U5       1.0000 0.28600  0.02130  0.50000  Biso   1.000  U 
  U6       1.0000 0.71400  0.97900  0.50000  Biso   1.000  U 
  U7       1.0000 0.78600  0.47900  0.50000  Biso   1.000  U 
  U8       1.0000 0.21400  0.52100  0.50000  Biso   1.000  U 
  U9       1.0000 0.15600  0.16300  0.00000  Biso   1.000  U 
  U10      1.0000 0.84400  0.83700  0.00000  Biso   1.000  U 
  U11      1.0000 0.65600  0.33700  0.00000  Biso   1.000  U 
  U12      1.0000 0.34400  0.66300  0.00000  Biso   1.000  U 
