data_image0
_cell_length_a       7.0133
_cell_length_b       7.0133
_cell_length_c       3.94455
_cell_angle_alpha    90
_cell_angle_beta     90
_cell_angle_gamma    90

_symmetry_space_group_name_H-M    "P 1"
_symmetry_int_tables_number       1

loop_
  _symmetry_equiv_pos_as_xyz
  'x, y, z'

loop_
  _atom_site_label
  _atom_site_occupancy
  _atom_site_fract_x
  _atom_site_fract_y
  _atom_site_fract_z
  _atom_site_thermal_displace_type
  _atom_site_B_iso_or_equiv
  _atom_site_type_symbol
  B1       1.0000 0.00000  0.00000  0.20000  Biso   1.000  B 
  B2       1.0000 0.50000  0.50000  0.20000  Biso   1.000  B 
  B3       1.0000 0.17900  0.03870  0.50000  Biso   1.000  B 
  B4       1.0000 0.41300  0.08690  0.50000  Biso   1.000  B 
  B5       1.0000 0.96100  0.17900  0.50000  Biso   1.000  B 
  B6       1.0000 0.46100  0.32100  0.50000  Biso   1.000  B 
  B7       1.0000 0.91300  0.41300  0.50000  Biso   1.000  B 
  B8       1.0000 0.67900  0.46100  0.50000  Biso   1.000  B 
  B9       1.0000 0.32100  0.53900  0.50000  Biso   1.000  B 
  B10      1.0000 0.08690  0.58700  0.50000  Biso   1.000  B 
  B11      1.0000 0.53900  0.67900  0.50000  Biso   1.000  B 
  B12      1.0000 0.03870  0.82100  0.50000  Biso   1.000  B 
  B13      1.0000 0.58700  0.91300  0.50000  Biso   1.000  B 
  B14      1.0000 0.82100  0.96100  0.50000  Biso   1.000  B 
  B15      1.0000 0.00000  0.00000  0.80000  Biso   1.000  B 
  B16      1.0000 0.50000  0.50000  0.80000  Biso   1.000  B 
  U1       1.0000 0.69000  0.19000  0.00000  Biso   1.000  U 
  U2       1.0000 0.19000  0.31000  0.00000  Biso   1.000  U 
  U3       1.0000 0.81000  0.69000  0.00000  Biso   1.000  U 
  U4       1.0000 0.31000  0.81000  0.00000  Biso   1.000  U 
