data_image0
_cell_length_a       4.08221
_cell_length_b       5.26287
_cell_length_c       6.46817
_cell_angle_alpha    104.342
_cell_angle_beta     108.395
_cell_angle_gamma    90

_symmetry_space_group_name_H-M    "P 1"
_symmetry_int_tables_number       1

loop_
  _symmetry_equiv_pos_as_xyz
  'x, y, z'

loop_
  _atom_site_label
  _atom_site_occupancy
  _atom_site_fract_x
  _atom_site_fract_y
  _atom_site_fract_z
  _atom_site_thermal_displace_type
  _atom_site_B_iso_or_equiv
  _atom_site_type_symbol
  Ni1      1.0000 0.00000  0.00000  0.00000  Biso   1.000  Ni
  Ni2      1.0000 0.21600  0.33600  0.43200  Biso   1.000  Ni
  Ni3      1.0000 0.78400  0.66400  0.56800  Biso   1.000  Ni
  Sn1      1.0000 0.57100  0.31200  0.14300  Biso   1.000  Sn
  Sn2      1.0000 0.17200  0.81200  0.34300  Biso   1.000  Sn
  Sn3      1.0000 0.82800  0.18800  0.65700  Biso   1.000  Sn
  Sn4      1.0000 0.42900  0.68800  0.85700  Biso   1.000  Sn
