data_image0
_cell_length_a       7.11673
_cell_length_b       7.5266
_cell_length_c       7.5266
_cell_angle_alpha    90
_cell_angle_beta     90
_cell_angle_gamma    90

_symmetry_space_group_name_H-M    "P 1"
_symmetry_int_tables_number       1

loop_
  _symmetry_equiv_pos_as_xyz
  'x, y, z'

loop_
  _atom_site_label
  _atom_site_occupancy
  _atom_site_fract_x
  _atom_site_fract_y
  _atom_site_fract_z
  _atom_site_thermal_displace_type
  _atom_site_B_iso_or_equiv
  _atom_site_type_symbol
  F1       1.0000 0.29800  0.50000  0.00000  Biso   1.000  F 
  F2       1.0000 0.70200  0.50000  0.00000  Biso   1.000  F 
  F3       1.0000 0.00000  0.33900  0.04330  Biso   1.000  F 
  F4       1.0000 0.29700  0.81100  0.09180  Biso   1.000  F 
  F5       1.0000 0.70300  0.81100  0.09180  Biso   1.000  F 
  F6       1.0000 0.50000  0.30100  0.16500  Biso   1.000  F 
  F7       1.0000 0.20300  0.09180  0.18900  Biso   1.000  F 
  F8       1.0000 0.79700  0.09180  0.18900  Biso   1.000  F 
  F9       1.0000 0.18000  0.56600  0.29800  Biso   1.000  F 
  F10      1.0000 0.82000  0.56600  0.29800  Biso   1.000  F 
  F11      1.0000 0.00000  0.83500  0.30100  Biso   1.000  F 
  F12      1.0000 0.50000  0.65300  0.30400  Biso   1.000  F 
  F13      1.0000 0.50000  0.95700  0.33900  Biso   1.000  F 
  F14      1.0000 0.00000  0.30400  0.34700  Biso   1.000  F 
  F15      1.0000 0.32000  0.29800  0.43400  Biso   1.000  F 
  F16      1.0000 0.68000  0.29800  0.43400  Biso   1.000  F 
  F17      1.0000 0.20200  0.00000  0.50000  Biso   1.000  F 
  F18      1.0000 0.79800  0.00000  0.50000  Biso   1.000  F 
  F19      1.0000 0.32000  0.70200  0.56600  Biso   1.000  F 
  F20      1.0000 0.68000  0.70200  0.56600  Biso   1.000  F 
  F21      1.0000 0.00000  0.69600  0.65300  Biso   1.000  F 
  F22      1.0000 0.50000  0.04330  0.66100  Biso   1.000  F 
  F23      1.0000 0.50000  0.34700  0.69600  Biso   1.000  F 
  F24      1.0000 0.00000  0.16500  0.69900  Biso   1.000  F 
  F25      1.0000 0.18000  0.43400  0.70200  Biso   1.000  F 
  F26      1.0000 0.82000  0.43400  0.70200  Biso   1.000  F 
  F27      1.0000 0.20300  0.90800  0.81100  Biso   1.000  F 
  F28      1.0000 0.79700  0.90800  0.81100  Biso   1.000  F 
  F29      1.0000 0.50000  0.69900  0.83500  Biso   1.000  F 
  F30      1.0000 0.29700  0.18900  0.90800  Biso   1.000  F 
  F31      1.0000 0.70300  0.18900  0.90800  Biso   1.000  F 
  F32      1.0000 0.00000  0.66100  0.95700  Biso   1.000  F 
  Ti1      1.0000 0.22800  0.33000  0.19100  Biso   1.000  Ti
  Ti2      1.0000 0.77200  0.33000  0.19100  Biso   1.000  Ti
  Ti3      1.0000 0.27200  0.80900  0.33000  Biso   1.000  Ti
  Ti4      1.0000 0.72800  0.80900  0.33000  Biso   1.000  Ti
  Ti5      1.0000 0.27200  0.19100  0.67000  Biso   1.000  Ti
  Ti6      1.0000 0.72800  0.19100  0.67000  Biso   1.000  Ti
  Ti7      1.0000 0.22800  0.67000  0.80900  Biso   1.000  Ti
  Ti8      1.0000 0.77200  0.67000  0.80900  Biso   1.000  Ti
