data_image0
_cell_length_a       3.97623
_cell_length_b       5.88844
_cell_length_c       7.33936
_cell_angle_alpha    90
_cell_angle_beta     74.2831
_cell_angle_gamma    90

_symmetry_space_group_name_H-M    "P 1"
_symmetry_int_tables_number       1

loop_
  _symmetry_equiv_pos_as_xyz
  'x, y, z'

loop_
  _atom_site_label
  _atom_site_occupancy
  _atom_site_fract_x
  _atom_site_fract_y
  _atom_site_fract_z
  _atom_site_thermal_displace_type
  _atom_site_B_iso_or_equiv
  _atom_site_type_symbol
  Ba1      1.0000 0.86600  0.01020  0.26700  Biso   1.000  Ba
  Ba2      1.0000 0.13400  0.51000  0.73300  Biso   1.000  Ba
  O1       1.0000 0.50100  0.26200  0.99900  Biso   1.000  O 
  O2       1.0000 0.49900  0.76200  0.00118  Biso   1.000  O 
  O3       1.0000 0.91500  0.51000  0.17100  Biso   1.000  O 
  O4       1.0000 0.31300  0.28400  0.37300  Biso   1.000  O 
  O5       1.0000 0.31300  0.73500  0.37500  Biso   1.000  O 
  O6       1.0000 0.68700  0.23500  0.62500  Biso   1.000  O 
  O7       1.0000 0.68700  0.78400  0.62700  Biso   1.000  O 
  O8       1.0000 0.08530  0.01040  0.82900  Biso   1.000  O 
  W1       1.0000 0.40000  0.51000  0.19900  Biso   1.000  W 
  W2       1.0000 0.60000  0.01020  0.80100  Biso   1.000  W 
