data_image0
_cell_length_a       6.00939
_cell_length_b       6.00939
_cell_length_c       6.00939
_cell_angle_alpha    90
_cell_angle_beta     90
_cell_angle_gamma    90

_symmetry_space_group_name_H-M    "P 1"
_symmetry_int_tables_number       1

loop_
  _symmetry_equiv_pos_as_xyz
  'x, y, z'

loop_
  _atom_site_label
  _atom_site_occupancy
  _atom_site_fract_x
  _atom_site_fract_y
  _atom_site_fract_z
  _atom_site_thermal_displace_type
  _atom_site_B_iso_or_equiv
  _atom_site_type_symbol
  Mg1      1.0000 0.50000  0.00000  0.00000  Biso   1.000  Mg
  Mg2      1.0000 0.00000  0.50000  0.00000  Biso   1.000  Mg
  Mg3      1.0000 0.50000  0.50000  0.00000  Biso   1.000  Mg
  Mg4      1.0000 0.00000  0.00000  0.50000  Biso   1.000  Mg
  Mg5      1.0000 0.50000  0.00000  0.50000  Biso   1.000  Mg
  Mg6      1.0000 0.00000  0.50000  0.50000  Biso   1.000  Mg
  P1       1.0000 0.25000  0.25000  0.25000  Biso   1.000  P 
  P2       1.0000 0.75000  0.75000  0.25000  Biso   1.000  P 
  P3       1.0000 0.75000  0.25000  0.75000  Biso   1.000  P 
  P4       1.0000 0.25000  0.75000  0.75000  Biso   1.000  P 
