data_image0
_cell_length_a       4.39519
_cell_length_b       4.54069
_cell_length_c       6.87735
_cell_angle_alpha    90
_cell_angle_beta     90
_cell_angle_gamma    90

_symmetry_space_group_name_H-M    "P 1"
_symmetry_int_tables_number       1

loop_
  _symmetry_equiv_pos_as_xyz
  'x, y, z'

loop_
  _atom_site_label
  _atom_site_occupancy
  _atom_site_fract_x
  _atom_site_fract_y
  _atom_site_fract_z
  _atom_site_thermal_displace_type
  _atom_site_B_iso_or_equiv
  _atom_site_type_symbol
  Be1      1.0000 0.46000  0.30300  0.12700  Biso   1.000  Be
  Be2      1.0000 0.54000  0.80300  0.37300  Biso   1.000  Be
  Be3      1.0000 0.04020  0.69700  0.62700  Biso   1.000  Be
  Be4      1.0000 0.96000  0.19700  0.87300  Biso   1.000  Be
  H1       1.0000 0.22800  0.88900  0.07740  Biso   1.000  H 
  H2       1.0000 0.87200  0.08020  0.20900  Biso   1.000  H 
  H3       1.0000 0.12800  0.58000  0.29100  Biso   1.000  H 
  H4       1.0000 0.77200  0.38900  0.42300  Biso   1.000  H 
  H5       1.0000 0.27200  0.11100  0.57700  Biso   1.000  H 
  H6       1.0000 0.62800  0.92000  0.70900  Biso   1.000  H 
  H7       1.0000 0.37200  0.42000  0.79100  Biso   1.000  H 
  H8       1.0000 0.72800  0.61100  0.92300  Biso   1.000  H 
  O1       1.0000 0.17600  0.09930  0.05410  Biso   1.000  O 
  O2       1.0000 0.33000  0.59900  0.22600  Biso   1.000  O 
  O3       1.0000 0.67000  0.09950  0.27400  Biso   1.000  O 
  O4       1.0000 0.82400  0.59900  0.44600  Biso   1.000  O 
  O5       1.0000 0.32400  0.90100  0.55400  Biso   1.000  O 
  O6       1.0000 0.17000  0.40100  0.72600  Biso   1.000  O 
  O7       1.0000 0.83000  0.90100  0.77400  Biso   1.000  O 
  O8       1.0000 0.67600  0.40100  0.94600  Biso   1.000  O 
