data_image0
_cell_length_a       5.26121
_cell_length_b       5.26121
_cell_length_c       5.26121
_cell_angle_alpha    90
_cell_angle_beta     90
_cell_angle_gamma    90

_symmetry_space_group_name_H-M    "P 1"
_symmetry_int_tables_number       1

loop_
  _symmetry_equiv_pos_as_xyz
  'x, y, z'

loop_
  _atom_site_label
  _atom_site_occupancy
  _atom_site_fract_x
  _atom_site_fract_y
  _atom_site_fract_z
  _atom_site_thermal_displace_type
  _atom_site_B_iso_or_equiv
  _atom_site_type_symbol
  F1       1.0000 0.23900  0.23900  0.23900  Biso   1.000  F 
  F2       1.0000 0.76100  0.23900  0.23900  Biso   1.000  F 
  F3       1.0000 0.23900  0.76100  0.23900  Biso   1.000  F 
  F4       1.0000 0.76100  0.76100  0.23900  Biso   1.000  F 
  F5       1.0000 0.50000  0.50000  0.50000  Biso   1.000  F 
  F6       1.0000 0.23900  0.23900  0.76100  Biso   1.000  F 
  F7       1.0000 0.76100  0.23900  0.76100  Biso   1.000  F 
  F8       1.0000 0.23900  0.76100  0.76100  Biso   1.000  F 
  F9       1.0000 0.76100  0.76100  0.76100  Biso   1.000  F 
  Y1       1.0000 0.50000  0.50000  0.00000  Biso   1.000  Y 
  Y2       1.0000 0.50000  0.00000  0.50000  Biso   1.000  Y 
  Y3       1.0000 0.00000  0.50000  0.50000  Biso   1.000  Y 
