data_image0
_cell_length_a       4.81994
_cell_length_b       4.81994
_cell_length_c       6.06021
_cell_angle_alpha    90
_cell_angle_beta     90
_cell_angle_gamma    112.325

_symmetry_space_group_name_H-M    "P 1"
_symmetry_int_tables_number       1

loop_
  _symmetry_equiv_pos_as_xyz
  'x, y, z'

loop_
  _atom_site_label
  _atom_site_occupancy
  _atom_site_fract_x
  _atom_site_fract_y
  _atom_site_fract_z
  _atom_site_thermal_displace_type
  _atom_site_B_iso_or_equiv
  _atom_site_type_symbol
  Li1      1.0000 0.50000  0.50000  0.00000  Biso   1.000  Li
  Li2      1.0000 0.82200  0.17800  0.25000  Biso   1.000  Li
  Li3      1.0000 0.50000  0.50000  0.50000  Biso   1.000  Li
  Li4      1.0000 0.17800  0.82200  0.75000  Biso   1.000  Li
  O1       1.0000 0.25200  0.74800  0.05250  Biso   1.000  O 
  O2       1.0000 0.25700  0.19000  0.25000  Biso   1.000  O 
  O3       1.0000 0.81000  0.74300  0.25000  Biso   1.000  O 
  O4       1.0000 0.25200  0.74800  0.44700  Biso   1.000  O 
  O5       1.0000 0.74800  0.25200  0.55300  Biso   1.000  O 
  O6       1.0000 0.19000  0.25700  0.75000  Biso   1.000  O 
  O7       1.0000 0.74300  0.81000  0.75000  Biso   1.000  O 
  O8       1.0000 0.74800  0.25200  0.94700  Biso   1.000  O 
  S1       1.0000 0.14500  0.85500  0.25000  Biso   1.000  S 
  S2       1.0000 0.85500  0.14500  0.75000  Biso   1.000  S 
