data_image0
_cell_length_a       6.73014
_cell_length_b       6.73014
_cell_length_c       6.73014
_cell_angle_alpha    122.53
_cell_angle_beta     122.53
_cell_angle_gamma    85.6703

_symmetry_space_group_name_H-M    "P 1"
_symmetry_int_tables_number       1

loop_
  _symmetry_equiv_pos_as_xyz
  'x, y, z'

loop_
  _atom_site_label
  _atom_site_occupancy
  _atom_site_fract_x
  _atom_site_fract_y
  _atom_site_fract_z
  _atom_site_thermal_displace_type
  _atom_site_B_iso_or_equiv
  _atom_site_type_symbol
  Br1      1.0000 0.91800  0.36100  0.00000  Biso   1.000  Br
  Br2      1.0000 0.36100  0.91800  0.00000  Biso   1.000  Br
  Br3      1.0000 0.08170  0.08170  0.44300  Biso   1.000  Br
  Br4      1.0000 0.63900  0.63900  0.55700  Biso   1.000  Br
  Hf1      1.0000 0.00000  0.00000  0.00000  Biso   1.000  Hf
