data_image0
_cell_length_a       5.98351
_cell_length_b       5.98351
_cell_length_c       5.98351
_cell_angle_alpha    120
_cell_angle_beta     90
_cell_angle_gamma    120

_symmetry_space_group_name_H-M    "P 1"
_symmetry_int_tables_number       1

loop_
  _symmetry_equiv_pos_as_xyz
  'x, y, z'

loop_
  _atom_site_label
  _atom_site_occupancy
  _atom_site_fract_x
  _atom_site_fract_y
  _atom_site_fract_z
  _atom_site_thermal_displace_type
  _atom_site_B_iso_or_equiv
  _atom_site_type_symbol
  Fe1      1.0000 0.37500  0.75000  0.12500  Biso   1.000  Fe
  Fe2      1.0000 0.37500  0.75000  0.62500  Biso   1.000  Fe
  Fe3      1.0000 0.37500  0.25000  0.62500  Biso   1.000  Fe
  Fe4      1.0000 0.87500  0.25000  0.62500  Biso   1.000  Fe
  Mn1      1.0000 0.00000  0.00000  0.00000  Biso   1.000  Mn
  Mn2      1.0000 0.75000  0.50000  0.25000  Biso   1.000  Mn
  O1       1.0000 0.61700  0.23300  0.38300  Biso   1.000  O 
  O2       1.0000 0.15000  0.76700  0.38300  Biso   1.000  O 
  O3       1.0000 0.61700  0.76700  0.38300  Biso   1.000  O 
  O4       1.0000 0.13300  0.26700  0.40000  Biso   1.000  O 
  O5       1.0000 0.61700  0.23300  0.85000  Biso   1.000  O 
  O6       1.0000 0.13300  0.26700  0.86700  Biso   1.000  O 
  O7       1.0000 0.13300  0.73300  0.86700  Biso   1.000  O 
  O8       1.0000 0.60000  0.73300  0.86700  Biso   1.000  O 
