data_image0
_cell_length_a       4.09193
_cell_length_b       4.09194
_cell_length_c       5.16221
_cell_angle_alpha    90
_cell_angle_beta     90.0008
_cell_angle_gamma    120

_symmetry_space_group_name_H-M    "P 1"
_symmetry_int_tables_number       1

loop_
  _symmetry_equiv_pos_as_xyz
  'x, y, z'

loop_
  _atom_site_label
  _atom_site_occupancy
  _atom_site_fract_x
  _atom_site_fract_y
  _atom_site_fract_z
  _atom_site_thermal_displace_type
  _atom_site_B_iso_or_equiv
  _atom_site_type_symbol
  Pd1      1.0000 0.00000  0.00000  0.00000  Biso   1.000  Pd
  Te1      1.0000 0.33300  0.66700  0.26500  Biso   1.000  Te
  Te2      1.0000 0.66700  0.33300  0.73500  Biso   1.000  Te
