data_image0
_cell_length_a       7.13924
_cell_length_b       7.41814
_cell_length_c       7.67925
_cell_angle_alpha    115.405
_cell_angle_beta     107.15
_cell_angle_gamma    100.785

_symmetry_space_group_name_H-M    "P 1"
_symmetry_int_tables_number       1

loop_
  _symmetry_equiv_pos_as_xyz
  'x, y, z'

loop_
  _atom_site_label
  _atom_site_occupancy
  _atom_site_fract_x
  _atom_site_fract_y
  _atom_site_fract_z
  _atom_site_thermal_displace_type
  _atom_site_B_iso_or_equiv
  _atom_site_type_symbol
  Al1      1.0000 0.20800  0.84100  0.17400  Biso   1.000  Al
  Al2      1.0000 0.79200  0.15900  0.82600  Biso   1.000  Al
  Na1      1.0000 0.14300  0.27000  0.24800  Biso   1.000  Na
  Na2      1.0000 0.85700  0.73000  0.75200  Biso   1.000  Na
  O1       1.0000 0.43800  0.31800  0.05580  Biso   1.000  O 
  O2       1.0000 0.81500  0.29800  0.08670  Biso   1.000  O 
  O3       1.0000 0.96800  0.88200  0.13300  Biso   1.000  O 
  O4       1.0000 0.77800  0.68000  0.29000  Biso   1.000  O 
  O5       1.0000 0.26900  0.70100  0.30300  Biso   1.000  O 
  O6       1.0000 0.38800  0.10500  0.32000  Biso   1.000  O 
  O7       1.0000 0.74500  0.04030  0.33200  Biso   1.000  O 
  O8       1.0000 0.72500  0.42100  0.42500  Biso   1.000  O 
  O9       1.0000 0.27500  0.57900  0.57500  Biso   1.000  O 
  O10      1.0000 0.25500  0.96000  0.66800  Biso   1.000  O 
  O11      1.0000 0.61200  0.89500  0.68000  Biso   1.000  O 
  O12      1.0000 0.73100  0.29900  0.69700  Biso   1.000  O 
  O13      1.0000 0.22200  0.32000  0.71000  Biso   1.000  O 
  O14      1.0000 0.03190  0.11800  0.86700  Biso   1.000  O 
  O15      1.0000 0.18500  0.70200  0.91300  Biso   1.000  O 
  O16      1.0000 0.56200  0.68200  0.94400  Biso   1.000  O 
  Si1      1.0000 0.76400  0.82200  0.17600  Biso   1.000  Si
  Si2      1.0000 0.69000  0.42500  0.20600  Biso   1.000  Si
  Si3      1.0000 0.64200  0.21000  0.44500  Biso   1.000  Si
  Si4      1.0000 0.35800  0.79000  0.55500  Biso   1.000  Si
  Si5      1.0000 0.31000  0.57500  0.79400  Biso   1.000  Si
  Si6      1.0000 0.23600  0.17800  0.82400  Biso   1.000  Si
