data_image0
_cell_length_a       4.60258
_cell_length_b       4.60258
_cell_length_c       4.29996
_cell_angle_alpha    89.9938
_cell_angle_beta     90.0062
_cell_angle_gamma    120

_symmetry_space_group_name_H-M    "P 1"
_symmetry_int_tables_number       1

loop_
  _symmetry_equiv_pos_as_xyz
  'x, y, z'

loop_
  _atom_site_label
  _atom_site_occupancy
  _atom_site_fract_x
  _atom_site_fract_y
  _atom_site_fract_z
  _atom_site_thermal_displace_type
  _atom_site_B_iso_or_equiv
  _atom_site_type_symbol
  N1       1.0000 0.33300  0.66700  0.25000  Biso   1.000  N 
  N2       1.0000 0.66700  0.33300  0.75000  Biso   1.000  N 
  Ni1      1.0000 0.00000  0.32800  0.00000  Biso   1.000  Ni
  Ni2      1.0000 0.67200  0.67200  0.00000  Biso   1.000  Ni
  Ni3      1.0000 0.32800  1.00000  0.00002  Biso   1.000  Ni
  Ni4      1.0000 0.67200  0.00000  0.50000  Biso   1.000  Ni
  Ni5      1.0000 0.32800  0.32800  0.50000  Biso   1.000  Ni
  Ni6      1.0000 0.00000  0.67200  0.50000  Biso   1.000  Ni
