data_image0
_cell_length_a       4.29394
_cell_length_b       4.99882
_cell_length_c       7.74323
_cell_angle_alpha    102.141
_cell_angle_beta     106.097
_cell_angle_gamma    64.5645

_symmetry_space_group_name_H-M    "P 1"
_symmetry_int_tables_number       1

loop_
  _symmetry_equiv_pos_as_xyz
  'x, y, z'

loop_
  _atom_site_label
  _atom_site_occupancy
  _atom_site_fract_x
  _atom_site_fract_y
  _atom_site_fract_z
  _atom_site_thermal_displace_type
  _atom_site_B_iso_or_equiv
  _atom_site_type_symbol
  O1       1.0000 0.36800  0.31900  0.07040  Biso   1.000  O 
  O2       1.0000 0.14900  0.94500  0.18900  Biso   1.000  O 
  O3       1.0000 0.90500  0.55500  0.31100  Biso   1.000  O 
  O4       1.0000 0.61600  0.18100  0.43000  Biso   1.000  O 
  O5       1.0000 0.38400  0.81900  0.57000  Biso   1.000  O 
  O6       1.0000 0.09450  0.44500  0.68900  Biso   1.000  O 
  O7       1.0000 0.85100  0.05460  0.81100  Biso   1.000  O 
  O8       1.0000 0.63200  0.68100  0.93000  Biso   1.000  O 
  Os1      1.0000 0.25900  0.25000  0.25000  Biso   1.000  Os
  Os2      1.0000 0.74100  0.75000  0.75000  Biso   1.000  Os
