data_image0
_cell_length_a       5.99165
_cell_length_b       12.9626
_cell_length_c       4.48452
_cell_angle_alpha    90
_cell_angle_beta     90
_cell_angle_gamma    90

_symmetry_space_group_name_H-M    "P 1"
_symmetry_int_tables_number       1

loop_
  _symmetry_equiv_pos_as_xyz
  'x, y, z'

loop_
  _atom_site_label
  _atom_site_occupancy
  _atom_site_fract_x
  _atom_site_fract_y
  _atom_site_fract_z
  _atom_site_thermal_displace_type
  _atom_site_B_iso_or_equiv
  _atom_site_type_symbol
  Cl1      1.0000 0.25000  0.26700  0.12400  Biso   1.000  Cl
  Cl2      1.0000 0.75000  0.00947  0.21900  Biso   1.000  Cl
  Cl3      1.0000 0.75000  0.50900  0.28100  Biso   1.000  Cl
  Cl4      1.0000 0.25000  0.76700  0.37600  Biso   1.000  Cl
  Cl5      1.0000 0.75000  0.23300  0.62400  Biso   1.000  Cl
  Cl6      1.0000 0.25000  0.49100  0.71900  Biso   1.000  Cl
  Cl7      1.0000 0.25000  0.99100  0.78100  Biso   1.000  Cl
  Cl8      1.0000 0.75000  0.73300  0.87600  Biso   1.000  Cl
  Hg1      1.0000 0.25000  0.62700  0.05510  Biso   1.000  Hg
  Hg2      1.0000 0.25000  0.12700  0.44500  Biso   1.000  Hg
  Hg3      1.0000 0.75000  0.87300  0.55500  Biso   1.000  Hg
  Hg4      1.0000 0.75000  0.37300  0.94500  Biso   1.000  Hg
