data_image0
_cell_length_a       6.43984
_cell_length_b       9.48876
_cell_length_c       10.3382
_cell_angle_alpha    89.3702
_cell_angle_beta     102.601
_cell_angle_gamma    101.294

_symmetry_space_group_name_H-M    "P 1"
_symmetry_int_tables_number       1

loop_
  _symmetry_equiv_pos_as_xyz
  'x, y, z'

loop_
  _atom_site_label
  _atom_site_occupancy
  _atom_site_fract_x
  _atom_site_fract_y
  _atom_site_fract_z
  _atom_site_thermal_displace_type
  _atom_site_B_iso_or_equiv
  _atom_site_type_symbol
  B1       1.0000 0.94900  0.21900  0.09450  Biso   1.000  B 
  B2       1.0000 0.12900  0.81200  0.15800  Biso   1.000  B 
  B3       1.0000 0.87600  0.44400  0.18600  Biso   1.000  B 
  B4       1.0000 0.81100  0.68600  0.25100  Biso   1.000  B 
  B5       1.0000 0.54500  0.84800  0.26900  Biso   1.000  B 
  B6       1.0000 0.81300  0.08970  0.27400  Biso   1.000  B 
  B7       1.0000 0.12500  0.30100  0.31500  Biso   1.000  B 
  B8       1.0000 0.65800  0.69500  0.45300  Biso   1.000  B 
  B9       1.0000 0.34200  0.30500  0.54700  Biso   1.000  B 
  B10      1.0000 0.87500  0.69900  0.68500  Biso   1.000  B 
  B11      1.0000 0.18700  0.91000  0.72600  Biso   1.000  B 
  B12      1.0000 0.45500  0.15200  0.73100  Biso   1.000  B 
  B13      1.0000 0.18900  0.31400  0.74900  Biso   1.000  B 
  B14      1.0000 0.12400  0.55600  0.81400  Biso   1.000  B 
  B15      1.0000 0.87100  0.18800  0.84200  Biso   1.000  B 
  B16      1.0000 0.05100  0.78100  0.90500  Biso   1.000  B 
  K1       1.0000 0.38300  0.13000  0.04490  Biso   1.000  K 
  K2       1.0000 0.33600  0.52000  0.12600  Biso   1.000  K 
  K3       1.0000 0.25200  0.00368  0.40500  Biso   1.000  K 
  K4       1.0000 0.79100  0.37300  0.49200  Biso   1.000  K 
  K5       1.0000 0.20900  0.62700  0.50800  Biso   1.000  K 
  K6       1.0000 0.74800  0.99600  0.59500  Biso   1.000  K 
  K7       1.0000 0.66400  0.48000  0.87400  Biso   1.000  K 
  K8       1.0000 0.61700  0.87000  0.95500  Biso   1.000  K 
  O1       1.0000 0.00433  0.80700  0.03250  Biso   1.000  O 
  O2       1.0000 0.82800  0.34100  0.08450  Biso   1.000  O 
  O3       1.0000 0.80500  0.09340  0.14000  Biso   1.000  O 
  O4       1.0000 0.76400  0.55400  0.16600  Biso   1.000  O 
  O5       1.0000 0.34600  0.87500  0.18100  Biso   1.000  O 
  O6       1.0000 0.15700  0.25400  0.19000  Biso   1.000  O 
  O7       1.0000 0.65200  0.77100  0.19500  Biso   1.000  O 
  O8       1.0000 0.03910  0.76300  0.26300  Biso   1.000  O 
  O9       1.0000 0.03270  0.43600  0.29900  Biso   1.000  O 
  O10      1.0000 0.67400  0.99100  0.32800  Biso   1.000  O 
  O11      1.0000 0.96300  0.18700  0.36400  Biso   1.000  O 
  O12      1.0000 0.79300  0.64400  0.38900  Biso   1.000  O 
  O13      1.0000 0.50200  0.76900  0.39000  Biso   1.000  O 
  O14      1.0000 0.33200  0.32600  0.41300  Biso   1.000  O 
  O15      1.0000 0.66800  0.67400  0.58700  Biso   1.000  O 
  O16      1.0000 0.49800  0.23100  0.61000  Biso   1.000  O 
  O17      1.0000 0.20700  0.35600  0.61100  Biso   1.000  O 
  O18      1.0000 0.03690  0.81300  0.63600  Biso   1.000  O 
  O19      1.0000 0.32600  0.00923  0.67200  Biso   1.000  O 
  O20      1.0000 0.96700  0.56400  0.70100  Biso   1.000  O 
  O21      1.0000 0.96100  0.23700  0.73700  Biso   1.000  O 
  O22      1.0000 0.34800  0.22900  0.80500  Biso   1.000  O 
  O23      1.0000 0.84300  0.74600  0.81000  Biso   1.000  O 
  O24      1.0000 0.65400  0.12500  0.81900  Biso   1.000  O 
  O25      1.0000 0.23600  0.44600  0.83400  Biso   1.000  O 
  O26      1.0000 0.19500  0.90700  0.86000  Biso   1.000  O 
  O27      1.0000 0.17200  0.65900  0.91600  Biso   1.000  O 
  O28      1.0000 0.99600  0.19300  0.96700  Biso   1.000  O 
