data_image0
_cell_length_a       5.85501
_cell_length_b       5.85502
_cell_length_c       5.85502
_cell_angle_alpha    48.4339
_cell_angle_beta     48.4338
_cell_angle_gamma    48.4339

_symmetry_space_group_name_H-M    "P 1"
_symmetry_int_tables_number       1

loop_
  _symmetry_equiv_pos_as_xyz
  'x, y, z'

loop_
  _atom_site_label
  _atom_site_occupancy
  _atom_site_fract_x
  _atom_site_fract_y
  _atom_site_fract_z
  _atom_site_thermal_displace_type
  _atom_site_B_iso_or_equiv
  _atom_site_type_symbol
  F1       1.0000 0.42900  0.75000  0.07120  Biso   1.000  F 
  F2       1.0000 0.92900  0.57100  0.25000  Biso   1.000  F 
  F3       1.0000 0.75000  0.07120  0.42900  Biso   1.000  F 
  F4       1.0000 0.25000  0.92900  0.57100  Biso   1.000  F 
  F5       1.0000 0.07120  0.42900  0.75000  Biso   1.000  F 
  F6       1.0000 0.57100  0.25000  0.92900  Biso   1.000  F 
  In1      1.0000 0.00000  0.00000  0.00000  Biso   1.000  In
  In2      1.0000 0.50000  0.50000  0.50000  Biso   1.000  In
