data_image0
_cell_length_a       3.08979
_cell_length_b       3.16223
_cell_length_c       4.5546
_cell_angle_alpha    69.6871
_cell_angle_beta     90
_cell_angle_gamma    90

_symmetry_space_group_name_H-M    "P 1"
_symmetry_int_tables_number       1

loop_
  _symmetry_equiv_pos_as_xyz
  'x, y, z'

loop_
  _atom_site_label
  _atom_site_occupancy
  _atom_site_fract_x
  _atom_site_fract_y
  _atom_site_fract_z
  _atom_site_thermal_displace_type
  _atom_site_B_iso_or_equiv
  _atom_site_type_symbol
  B1       1.0000 0.75000  0.44100  0.11900  Biso   1.000  B 
  B2       1.0000 0.25000  0.55900  0.88100  Biso   1.000  B 
  Mo1      1.0000 0.25000  0.85600  0.28900  Biso   1.000  Mo
  Mo2      1.0000 0.75000  0.14400  0.71100  Biso   1.000  Mo
