data_image0
_cell_length_a       2.97658
_cell_length_b       3.0304
_cell_length_c       9.31494
_cell_angle_alpha    80.6385
_cell_angle_beta     90
_cell_angle_gamma    90

_symmetry_space_group_name_H-M    "P 1"
_symmetry_int_tables_number       1

loop_
  _symmetry_equiv_pos_as_xyz
  'x, y, z'

loop_
  _atom_site_label
  _atom_site_occupancy
  _atom_site_fract_x
  _atom_site_fract_y
  _atom_site_fract_z
  _atom_site_thermal_displace_type
  _atom_site_B_iso_or_equiv
  _atom_site_type_symbol
  B1       1.0000 0.25000  0.97600  0.04720  Biso   1.000  B 
  B2       1.0000 0.25000  0.88200  0.23500  Biso   1.000  B 
  B3       1.0000 0.75000  0.83100  0.33800  Biso   1.000  B 
  B4       1.0000 0.25000  0.16900  0.66200  Biso   1.000  B 
  B5       1.0000 0.75000  0.11800  0.76500  Biso   1.000  B 
  B6       1.0000 0.75000  0.02360  0.95300  Biso   1.000  B 
  V1       1.0000 0.75000  0.42900  0.14100  Biso   1.000  V 
  V2       1.0000 0.25000  0.29500  0.41000  Biso   1.000  V 
  V3       1.0000 0.75000  0.70500  0.59000  Biso   1.000  V 
  V4       1.0000 0.25000  0.57100  0.85900  Biso   1.000  V 
