data_image0
_cell_length_a       10.2804
_cell_length_b       9.82621
_cell_length_c       6.18397
_cell_angle_alpha    90
_cell_angle_beta     90
_cell_angle_gamma    90

_symmetry_space_group_name_H-M    "P 1"
_symmetry_int_tables_number       1

loop_
  _symmetry_equiv_pos_as_xyz
  'x, y, z'

loop_
  _atom_site_label
  _atom_site_occupancy
  _atom_site_fract_x
  _atom_site_fract_y
  _atom_site_fract_z
  _atom_site_thermal_displace_type
  _atom_site_B_iso_or_equiv
  _atom_site_type_symbol
  Al1      1.0000 0.03720  0.48600  0.20800  Biso   1.000  Al
  Al2      1.0000 0.96300  0.98600  0.29200  Biso   1.000  Al
  Al3      1.0000 0.46300  0.51400  0.70800  Biso   1.000  Al
  Al4      1.0000 0.53700  0.01380  0.79200  Biso   1.000  Al
  Cl1      1.0000 0.46700  0.50900  0.05700  Biso   1.000  Cl
  Cl2      1.0000 0.12300  0.66900  0.07080  Biso   1.000  Cl
  Cl3      1.0000 0.84300  0.47800  0.07310  Biso   1.000  Cl
  Cl4      1.0000 0.15100  0.31200  0.10900  Biso   1.000  Cl
  Cl5      1.0000 0.84900  0.81200  0.39100  Biso   1.000  Cl
  Cl6      1.0000 0.15700  0.97800  0.42700  Biso   1.000  Cl
  Cl7      1.0000 0.87700  0.16900  0.42900  Biso   1.000  Cl
  Cl8      1.0000 0.53300  0.00899  0.44300  Biso   1.000  Cl
  Cl9      1.0000 0.03340  0.49100  0.55700  Biso   1.000  Cl
  Cl10     1.0000 0.37700  0.33100  0.57100  Biso   1.000  Cl
  Cl11     1.0000 0.65700  0.52200  0.57300  Biso   1.000  Cl
  Cl12     1.0000 0.34900  0.68800  0.60900  Biso   1.000  Cl
  Cl13     1.0000 0.65100  0.18800  0.89100  Biso   1.000  Cl
  Cl14     1.0000 0.34300  0.02240  0.92700  Biso   1.000  Cl
  Cl15     1.0000 0.62300  0.83100  0.92900  Biso   1.000  Cl
  Cl16     1.0000 0.96700  0.99100  0.94300  Biso   1.000  Cl
  Na1      1.0000 0.37700  0.78600  0.18700  Biso   1.000  Na
  Na2      1.0000 0.62300  0.28600  0.31300  Biso   1.000  Na
  Na3      1.0000 0.12300  0.21400  0.68700  Biso   1.000  Na
  Na4      1.0000 0.87700  0.71400  0.81300  Biso   1.000  Na
