data_image0
_cell_length_a       9.05441
_cell_length_b       9.05441
_cell_length_c       11.3618
_cell_angle_alpha    90
_cell_angle_beta     90
_cell_angle_gamma    77.0664

_symmetry_space_group_name_H-M    "P 1"
_symmetry_int_tables_number       1

loop_
  _symmetry_equiv_pos_as_xyz
  'x, y, z'

loop_
  _atom_site_label
  _atom_site_occupancy
  _atom_site_fract_x
  _atom_site_fract_y
  _atom_site_fract_z
  _atom_site_thermal_displace_type
  _atom_site_B_iso_or_equiv
  _atom_site_type_symbol
  Cl1      1.0000 0.29900  0.29900  0.00000  Biso   1.000  Cl
  Cl2      1.0000 0.70100  0.70100  0.00000  Biso   1.000  Cl
  Cl3      1.0000 0.08060  0.67100  0.08110  Biso   1.000  Cl
  Cl4      1.0000 0.32900  0.91900  0.08110  Biso   1.000  Cl
  Cl5      1.0000 0.64100  0.35900  0.14300  Biso   1.000  Cl
  Cl6      1.0000 0.04220  0.20600  0.20300  Biso   1.000  Cl
  Cl7      1.0000 0.79400  0.95800  0.20300  Biso   1.000  Cl
  Cl8      1.0000 0.29400  0.45800  0.29700  Biso   1.000  Cl
  Cl9      1.0000 0.54200  0.70600  0.29700  Biso   1.000  Cl
  Cl10     1.0000 0.14100  0.85900  0.35700  Biso   1.000  Cl
  Cl11     1.0000 0.58100  0.17100  0.41900  Biso   1.000  Cl
  Cl12     1.0000 0.82900  0.41900  0.41900  Biso   1.000  Cl
  Cl13     1.0000 0.20100  0.20100  0.50000  Biso   1.000  Cl
  Cl14     1.0000 0.79900  0.79900  0.50000  Biso   1.000  Cl
  Cl15     1.0000 0.17100  0.58100  0.58100  Biso   1.000  Cl
  Cl16     1.0000 0.41900  0.82900  0.58100  Biso   1.000  Cl
  Cl17     1.0000 0.85900  0.14100  0.64300  Biso   1.000  Cl
  Cl18     1.0000 0.45800  0.29400  0.70300  Biso   1.000  Cl
  Cl19     1.0000 0.70600  0.54200  0.70300  Biso   1.000  Cl
  Cl20     1.0000 0.20600  0.04220  0.79700  Biso   1.000  Cl
  Cl21     1.0000 0.95800  0.79400  0.79700  Biso   1.000  Cl
  Cl22     1.0000 0.35900  0.64100  0.85700  Biso   1.000  Cl
  Cl23     1.0000 0.67100  0.08060  0.91900  Biso   1.000  Cl
  Cl24     1.0000 0.91900  0.32900  0.91900  Biso   1.000  Cl
  Mo1      1.0000 0.13100  0.13100  0.00000  Biso   1.000  Mo
  Mo2      1.0000 0.86900  0.86900  0.00000  Biso   1.000  Mo
  Mo3      1.0000 0.84900  0.15100  0.06440  Biso   1.000  Mo
  Mo4      1.0000 0.06480  0.93500  0.14900  Biso   1.000  Mo
  Mo5      1.0000 0.56500  0.43500  0.35100  Biso   1.000  Mo
  Mo6      1.0000 0.34900  0.65100  0.43600  Biso   1.000  Mo
  Mo7      1.0000 0.36900  0.36900  0.50000  Biso   1.000  Mo
  Mo8      1.0000 0.63100  0.63100  0.50000  Biso   1.000  Mo
  Mo9      1.0000 0.65100  0.34900  0.56400  Biso   1.000  Mo
  Mo10     1.0000 0.43500  0.56500  0.64900  Biso   1.000  Mo
  Mo11     1.0000 0.93500  0.06480  0.85100  Biso   1.000  Mo
  Mo12     1.0000 0.15100  0.84900  0.93600  Biso   1.000  Mo
