data_image0
_cell_length_a       5.46967
_cell_length_b       5.50615
_cell_length_c       7.04655
_cell_angle_alpha    66.774
_cell_angle_beta     112.837
_cell_angle_gamma    119.781

_symmetry_space_group_name_H-M    "P 1"
_symmetry_int_tables_number       1

loop_
  _symmetry_equiv_pos_as_xyz
  'x, y, z'

loop_
  _atom_site_label
  _atom_site_occupancy
  _atom_site_fract_x
  _atom_site_fract_y
  _atom_site_fract_z
  _atom_site_thermal_displace_type
  _atom_site_B_iso_or_equiv
  _atom_site_type_symbol
  Ca1      1.0000 0.00000  0.00000  0.00000  Biso   1.000  Ca
  Ca2      1.0000 0.80400  0.19900  0.41000  Biso   1.000  Ca
  Ca3      1.0000 0.19600  0.80100  0.59000  Biso   1.000  Ca
  O1       1.0000 0.68100  0.30500  0.05820  Biso   1.000  O 
  O2       1.0000 0.26200  0.22200  0.30200  Biso   1.000  O 
  O3       1.0000 0.26100  0.73400  0.30500  Biso   1.000  O 
  O4       1.0000 0.77800  0.73400  0.30500  Biso   1.000  O 
  O5       1.0000 0.22200  0.26600  0.69500  Biso   1.000  O 
  O6       1.0000 0.73900  0.26600  0.69500  Biso   1.000  O 
  O7       1.0000 0.73800  0.77800  0.69800  Biso   1.000  O 
  O8       1.0000 0.31900  0.69500  0.94200  Biso   1.000  O 
  V1       1.0000 0.40400  0.59600  0.21200  Biso   1.000  V 
  V2       1.0000 0.59600  0.40400  0.78800  Biso   1.000  V 
