data_image0
_cell_length_a       5.423
_cell_length_b       5.423
_cell_length_c       5.423
_cell_angle_alpha    55.2539
_cell_angle_beta     55.2539
_cell_angle_gamma    55.2539

_symmetry_space_group_name_H-M    "P 1"
_symmetry_int_tables_number       1

loop_
  _symmetry_equiv_pos_as_xyz
  'x, y, z'

loop_
  _atom_site_label
  _atom_site_occupancy
  _atom_site_fract_x
  _atom_site_fract_y
  _atom_site_fract_z
  _atom_site_thermal_displace_type
  _atom_site_B_iso_or_equiv
  _atom_site_type_symbol
  Ni1      1.0000 0.35000  0.35000  0.35000  Biso   1.000  Ni
  Ni2      1.0000 0.65000  0.65000  0.65000  Biso   1.000  Ni
  O1       1.0000 0.76500  0.44000  0.05260  Biso   1.000  O 
  O2       1.0000 0.56000  0.94700  0.23500  Biso   1.000  O 
  O3       1.0000 0.05260  0.76500  0.44000  Biso   1.000  O 
  O4       1.0000 0.94700  0.23500  0.56000  Biso   1.000  O 
  O5       1.0000 0.44000  0.05260  0.76500  Biso   1.000  O 
  O6       1.0000 0.23500  0.56000  0.94700  Biso   1.000  O 
  Ti1      1.0000 0.14400  0.14400  0.14400  Biso   1.000  Ti
  Ti2      1.0000 0.85600  0.85600  0.85600  Biso   1.000  Ti
