data_image0
_cell_length_a       7.65476
_cell_length_b       8.62236
_cell_length_c       8.62237
_cell_angle_alpha    61.6502
_cell_angle_beta     90.9905
_cell_angle_gamma    90.9904

_symmetry_space_group_name_H-M    "P 1"
_symmetry_int_tables_number       1

loop_
  _symmetry_equiv_pos_as_xyz
  'x, y, z'

loop_
  _atom_site_label
  _atom_site_occupancy
  _atom_site_fract_x
  _atom_site_fract_y
  _atom_site_fract_z
  _atom_site_thermal_displace_type
  _atom_site_B_iso_or_equiv
  _atom_site_type_symbol
  I1       1.0000 0.42500  0.22900  0.00000  Biso   1.000  I 
  I2       1.0000 0.57500  0.77100  0.00002  Biso   1.000  I 
  I3       1.0000 0.92500  1.00000  0.22900  Biso   1.000  I 
  I4       1.0000 0.11100  0.51000  0.24000  Biso   1.000  I 
  I5       1.0000 0.38900  0.76000  0.49000  Biso   1.000  I 
  I6       1.0000 0.61100  0.24000  0.51000  Biso   1.000  I 
  I7       1.0000 0.88900  0.49000  0.76000  Biso   1.000  I 
  I8       1.0000 0.07540  0.00002  0.77100  Biso   1.000  I 
  U1       1.0000 0.25000  0.85800  0.14200  Biso   1.000  U 
  U2       1.0000 0.75000  0.14200  0.85800  Biso   1.000  U 
