data_image0
_cell_length_a       5.0568
_cell_length_b       5.0568
_cell_length_c       18.4665
_cell_angle_alpha    90
_cell_angle_beta     90
_cell_angle_gamma    90

_symmetry_space_group_name_H-M    "P 1"
_symmetry_int_tables_number       1

loop_
  _symmetry_equiv_pos_as_xyz
  'x, y, z'

loop_
  _atom_site_label
  _atom_site_occupancy
  _atom_site_fract_x
  _atom_site_fract_y
  _atom_site_fract_z
  _atom_site_thermal_displace_type
  _atom_site_B_iso_or_equiv
  _atom_site_type_symbol
  P1       1.0000 0.69800  0.81900  0.69100  Biso   1.000  P 
  P2       1.0000 0.68100  0.19800  0.44100  Biso   1.000  P 
  P3       1.0000 0.31900  0.80200  0.94100  Biso   1.000  P 
  P4       1.0000 0.81900  0.69800  0.30900  Biso   1.000  P 
  P5       1.0000 0.18100  0.30200  0.80900  Biso   1.000  P 
  P6       1.0000 0.98100  0.00772  0.12400  Biso   1.000  P 
  P7       1.0000 0.01900  0.99200  0.62400  Biso   1.000  P 
  P8       1.0000 0.48100  0.49200  0.12600  Biso   1.000  P 
  P9       1.0000 0.51900  0.50800  0.62600  Biso   1.000  P 
  P10      1.0000 0.99200  0.01900  0.37600  Biso   1.000  P 
  P11      1.0000 0.00772  0.98100  0.87600  Biso   1.000  P 
  P12      1.0000 0.50800  0.51900  0.37400  Biso   1.000  P 
  P13      1.0000 0.49200  0.48100  0.87400  Biso   1.000  P 
  P14      1.0000 0.80200  0.31900  0.05920  Biso   1.000  P 
  P15      1.0000 0.19800  0.68100  0.55900  Biso   1.000  P 
  P16      1.0000 0.30200  0.18100  0.19100  Biso   1.000  P 
  Zn1      1.0000 0.13600  0.65200  0.05010  Biso   1.000  Zn
  Zn2      1.0000 0.86400  0.34800  0.55000  Biso   1.000  Zn
  Zn3      1.0000 0.63600  0.84800  0.20000  Biso   1.000  Zn
  Zn4      1.0000 0.36400  0.15200  0.70000  Biso   1.000  Zn
  Zn5      1.0000 0.34800  0.86400  0.45000  Biso   1.000  Zn
  Zn6      1.0000 0.65200  0.13600  0.95000  Biso   1.000  Zn
  Zn7      1.0000 0.15200  0.36400  0.30000  Biso   1.000  Zn
  Zn8      1.0000 0.84800  0.63600  0.80000  Biso   1.000  Zn
