data_image0
_cell_length_a       4.82157
_cell_length_b       10.1069
_cell_length_c       6.00706
_cell_angle_alpha    89.689
_cell_angle_beta     90.001
_cell_angle_gamma    89.9991

_symmetry_space_group_name_H-M    "P 1"
_symmetry_int_tables_number       1

loop_
  _symmetry_equiv_pos_as_xyz
  'x, y, z'

loop_
  _atom_site_label
  _atom_site_occupancy
  _atom_site_fract_x
  _atom_site_fract_y
  _atom_site_fract_z
  _atom_site_thermal_displace_type
  _atom_site_B_iso_or_equiv
  _atom_site_type_symbol
  Fe1      1.0000 0.48000  0.22400  0.74900  Biso   1.000  Fe
  Fe2      1.0000 0.52000  0.77600  0.25100  Biso   1.000  Fe
  Fe3      1.0000 0.50000  0.50000  0.50000  Biso   1.000  Fe
  Fe4      1.0000 0.98000  0.27600  0.25100  Biso   1.000  Fe
  Fe5      1.0000 0.02040  0.72400  0.74900  Biso   1.000  Fe
  Fe6      1.0000 0.50000  0.50000  0.00000  Biso   1.000  Fe
  Fe7      1.0000 0.00000  0.00000  0.50000  Biso   1.000  Fe
  Fe8      1.0000 0.00000  0.00000  0.00000  Biso   1.000  Fe
  O1       1.0000 0.21700  0.66800  0.46600  Biso   1.000  O 
  O2       1.0000 0.78300  0.33200  0.53400  Biso   1.000  O 
  O3       1.0000 0.78200  0.33200  0.96700  Biso   1.000  O 
  O4       1.0000 0.21800  0.66800  0.03320  Biso   1.000  O 
  O5       1.0000 0.28300  0.16800  0.46600  Biso   1.000  O 
  O6       1.0000 0.71700  0.83200  0.53400  Biso   1.000  O 
  O7       1.0000 0.28200  0.16800  0.03320  Biso   1.000  O 
  O8       1.0000 0.71800  0.83200  0.96700  Biso   1.000  O 
  O9       1.0000 0.21500  0.44700  0.25000  Biso   1.000  O 
  O10      1.0000 0.78500  0.55300  0.75000  Biso   1.000  O 
  O11      1.0000 0.28500  0.94700  0.25000  Biso   1.000  O 
  O12      1.0000 0.71500  0.05320  0.75000  Biso   1.000  O 
  O13      1.0000 0.26100  0.41100  0.75000  Biso   1.000  O 
  O14      1.0000 0.73900  0.58900  0.25000  Biso   1.000  O 
  O15      1.0000 0.23900  0.91100  0.75000  Biso   1.000  O 
  O16      1.0000 0.76100  0.08910  0.25000  Biso   1.000  O 
  Si1      1.0000 0.92400  0.40400  0.75000  Biso   1.000  Si
  Si2      1.0000 0.07550  0.59600  0.25000  Biso   1.000  Si
  Si3      1.0000 0.42400  0.09620  0.25000  Biso   1.000  Si
  Si4      1.0000 0.57600  0.90400  0.75000  Biso   1.000  Si
