data_image0
_cell_length_a       7.11856
_cell_length_b       7.11856
_cell_length_c       7.11856
_cell_angle_alpha    101.03
_cell_angle_beta     113.85
_cell_angle_gamma    113.85

_symmetry_space_group_name_H-M    "P 1"
_symmetry_int_tables_number       1

loop_
  _symmetry_equiv_pos_as_xyz
  'x, y, z'

loop_
  _atom_site_label
  _atom_site_occupancy
  _atom_site_fract_x
  _atom_site_fract_y
  _atom_site_fract_z
  _atom_site_thermal_displace_type
  _atom_site_B_iso_or_equiv
  _atom_site_type_symbol
  Ag1      1.0000 0.99500  0.77700  0.21800  Biso   1.000  Ag
  Ag2      1.0000 0.44200  0.21800  0.22300  Biso   1.000  Ag
  Ag3      1.0000 0.55800  0.78200  0.77700  Biso   1.000  Ag
  Ag4      1.0000 0.00478  0.22300  0.78200  Biso   1.000  Ag
  Br1      1.0000 0.50000  0.75000  0.25000  Biso   1.000  Br
  Br2      1.0000 0.00000  0.25500  0.25500  Biso   1.000  Br
  Br3      1.0000 0.00000  0.74500  0.74500  Biso   1.000  Br
  Br4      1.0000 0.50000  0.25000  0.75000  Biso   1.000  Br
  O1       1.0000 0.23700  0.79500  0.05300  Biso   1.000  O 
  O2       1.0000 0.59700  0.50100  0.09580  Biso   1.000  O 
  O3       1.0000 0.74200  0.94700  0.18400  Biso   1.000  O 
  O4       1.0000 0.25800  0.44200  0.20500  Biso   1.000  O 
  O5       1.0000 0.23700  0.18400  0.44200  Biso   1.000  O 
  O6       1.0000 0.59500  0.09580  0.49900  Biso   1.000  O 
  O7       1.0000 0.40500  0.90400  0.50100  Biso   1.000  O 
  O8       1.0000 0.76300  0.81600  0.55800  Biso   1.000  O 
  O9       1.0000 0.74200  0.55800  0.79500  Biso   1.000  O 
  O10      1.0000 0.25800  0.05300  0.81600  Biso   1.000  O 
  O11      1.0000 0.40300  0.49900  0.90400  Biso   1.000  O 
  O12      1.0000 0.76300  0.20500  0.94700  Biso   1.000  O 
