data_image0
_cell_length_a       4.1385
_cell_length_b       5.04125
_cell_length_c       5.04125
_cell_angle_alpha    107.224
_cell_angle_beta     114.234
_cell_angle_gamma    65.766

_symmetry_space_group_name_H-M    "P 1"
_symmetry_int_tables_number       1

loop_
  _symmetry_equiv_pos_as_xyz
  'x, y, z'

loop_
  _atom_site_label
  _atom_site_occupancy
  _atom_site_fract_x
  _atom_site_fract_y
  _atom_site_fract_z
  _atom_site_thermal_displace_type
  _atom_site_B_iso_or_equiv
  _atom_site_type_symbol
  O1       1.0000 0.00000  0.37300  0.37300  Biso   1.000  O 
  O2       1.0000 0.00000  0.62700  0.62700  Biso   1.000  O 
  Rb1      1.0000 0.25200  0.74800  0.25200  Biso   1.000  Rb
  Rb2      1.0000 0.74800  0.25200  0.74800  Biso   1.000  Rb
