data_image0
_cell_length_a       5.3158
_cell_length_b       2.96949
_cell_length_c       5.16168
_cell_angle_alpha    90
_cell_angle_beta     90
_cell_angle_gamma    106.219

_symmetry_space_group_name_H-M    "P 1"
_symmetry_int_tables_number       1

loop_
  _symmetry_equiv_pos_as_xyz
  'x, y, z'

loop_
  _atom_site_label
  _atom_site_occupancy
  _atom_site_fract_x
  _atom_site_fract_y
  _atom_site_fract_z
  _atom_site_thermal_displace_type
  _atom_site_B_iso_or_equiv
  _atom_site_type_symbol
  Cu1      1.0000 0.37000  0.18500  0.26600  Biso   1.000  Cu
  Cu2      1.0000 0.63000  0.81500  0.76600  Biso   1.000  Cu
  H1       1.0000 0.03040  0.51500  0.08570  Biso   1.000  H 
  H2       1.0000 0.79600  0.89800  0.28600  Biso   1.000  H 
  H3       1.0000 0.97000  0.48500  0.58600  Biso   1.000  H 
  H4       1.0000 0.20400  0.10200  0.78600  Biso   1.000  H 
  O1       1.0000 0.11300  0.55600  0.26100  Biso   1.000  O 
  O2       1.0000 0.60400  0.80200  0.29800  Biso   1.000  O 
  O3       1.0000 0.88700  0.44400  0.76100  Biso   1.000  O 
  O4       1.0000 0.39600  0.19800  0.79800  Biso   1.000  O 
