data_image0
_cell_length_a       6.78781
_cell_length_b       6.80248
_cell_length_c       6.03718
_cell_angle_alpha    92.7874
_cell_angle_beta     101.903
_cell_angle_gamma    119.857

_symmetry_space_group_name_H-M    "P 1"
_symmetry_int_tables_number       1

loop_
  _symmetry_equiv_pos_as_xyz
  'x, y, z'

loop_
  _atom_site_label
  _atom_site_occupancy
  _atom_site_fract_x
  _atom_site_fract_y
  _atom_site_fract_z
  _atom_site_thermal_displace_type
  _atom_site_B_iso_or_equiv
  _atom_site_type_symbol
  B1       1.0000 0.30800  0.75800  0.23800  Biso   1.000  B 
  B2       1.0000 0.64800  0.42700  0.26100  Biso   1.000  B 
  B3       1.0000 0.35200  0.57300  0.73900  Biso   1.000  B 
  B4       1.0000 0.69200  0.24200  0.76200  Biso   1.000  B 
  H1       1.0000 0.26700  0.03190  0.23900  Biso   1.000  H 
  H2       1.0000 0.03590  0.44300  0.24500  Biso   1.000  H 
  H3       1.0000 0.68500  0.14900  0.24800  Biso   1.000  H 
  H4       1.0000 0.92100  0.74000  0.25200  Biso   1.000  H 
  H5       1.0000 0.33100  0.38500  0.25500  Biso   1.000  H 
  H6       1.0000 0.62900  0.80100  0.25900  Biso   1.000  H 
  H7       1.0000 0.37100  0.19900  0.74100  Biso   1.000  H 
  H8       1.0000 0.66900  0.61500  0.74500  Biso   1.000  H 
  H9       1.0000 0.07940  0.26000  0.74800  Biso   1.000  H 
  H10      1.0000 0.31500  0.85100  0.75200  Biso   1.000  H 
  H11      1.0000 0.96400  0.55700  0.75500  Biso   1.000  H 
  H12      1.0000 0.73300  0.96800  0.76100  Biso   1.000  H 
  O1       1.0000 0.17500  0.85800  0.22800  Biso   1.000  O 
  O2       1.0000 0.20800  0.52700  0.24400  Biso   1.000  O 
  O3       1.0000 0.54400  0.88900  0.24800  Biso   1.000  O 
  O4       1.0000 0.77600  0.32200  0.25200  Biso   1.000  O 
  O5       1.0000 0.41600  0.29700  0.26100  Biso   1.000  O 
  O6       1.0000 0.75300  0.66000  0.26700  Biso   1.000  O 
  O7       1.0000 0.24700  0.34000  0.73300  Biso   1.000  O 
  O8       1.0000 0.58400  0.70300  0.73900  Biso   1.000  O 
  O9       1.0000 0.22400  0.67800  0.74800  Biso   1.000  O 
  O10      1.0000 0.45600  0.11100  0.75200  Biso   1.000  O 
  O11      1.0000 0.79200  0.47300  0.75600  Biso   1.000  O 
  O12      1.0000 0.82500  0.14200  0.77200  Biso   1.000  O 
