data_image0
_cell_length_a       5.2258
_cell_length_b       5.22581
_cell_length_c       6.88727
_cell_angle_alpha    90
_cell_angle_beta     112.295
_cell_angle_gamma    60

_symmetry_space_group_name_H-M    "P 1"
_symmetry_int_tables_number       1

loop_
  _symmetry_equiv_pos_as_xyz
  'x, y, z'

loop_
  _atom_site_label
  _atom_site_occupancy
  _atom_site_fract_x
  _atom_site_fract_y
  _atom_site_fract_z
  _atom_site_thermal_displace_type
  _atom_site_B_iso_or_equiv
  _atom_site_type_symbol
  Ca1      1.0000 0.00000  0.00000  0.00000  Biso   1.000  Ca
  Ca2      1.0000 0.59300  0.20300  0.39000  Biso   1.000  Ca
  Ca3      1.0000 0.40700  0.79700  0.61000  Biso   1.000  Ca
  O1       1.0000 0.35500  0.32300  0.03200  Biso   1.000  O 
  O2       1.0000 0.02790  0.24400  0.29900  Biso   1.000  O 
  O3       1.0000 0.02790  0.72800  0.29900  Biso   1.000  O 
  O4       1.0000 0.54300  0.72800  0.29900  Biso   1.000  O 
  O5       1.0000 0.45700  0.27200  0.70100  Biso   1.000  O 
  O6       1.0000 0.97200  0.27200  0.70100  Biso   1.000  O 
  O7       1.0000 0.97200  0.75600  0.70100  Biso   1.000  O 
  O8       1.0000 0.64500  0.67700  0.96800  Biso   1.000  O 
  P1       1.0000 0.81000  0.59500  0.21500  Biso   1.000  P 
  P2       1.0000 0.19000  0.40500  0.78500  Biso   1.000  P 
