data_image0
_cell_length_a       5.71522
_cell_length_b       6.02785
_cell_length_c       8.06257
_cell_angle_alpha    102.642
_cell_angle_beta     101.011
_cell_angle_gamma    115.925

_symmetry_space_group_name_H-M    "P 1"
_symmetry_int_tables_number       1

loop_
  _symmetry_equiv_pos_as_xyz
  'x, y, z'

loop_
  _atom_site_label
  _atom_site_occupancy
  _atom_site_fract_x
  _atom_site_fract_y
  _atom_site_fract_z
  _atom_site_thermal_displace_type
  _atom_site_B_iso_or_equiv
  _atom_site_type_symbol
  Ca1      1.0000 0.42100  0.17200  0.33700  Biso   1.000  Ca
  Ca2      1.0000 0.58500  0.83500  0.66300  Biso   1.000  Ca
  H1       1.0000 0.15300  0.26400  0.01160  Biso   1.000  H 
  H2       1.0000 0.77900  0.78300  0.03050  Biso   1.000  H 
  H3       1.0000 0.31900  0.66100  0.13100  Biso   1.000  H 
  H4       1.0000 0.04710  0.33700  0.17300  Biso   1.000  H 
  H5       1.0000 0.82300  0.97100  0.34500  Biso   1.000  H 
  H6       1.0000 0.97800  0.62600  0.65500  Biso   1.000  H 
  H7       1.0000 0.37400  0.16400  0.82700  Biso   1.000  H 
  H8       1.0000 0.68800  0.53000  0.86900  Biso   1.000  H 
  H9       1.0000 0.24900  0.75300  0.97000  Biso   1.000  H 
  H10      1.0000 0.64200  0.25200  0.98800  Biso   1.000  H 
  O1       1.0000 0.33400  0.81600  0.10100  Biso   1.000  O 
  O2       1.0000 0.20900  0.33200  0.14600  Biso   1.000  O 
  O3       1.0000 0.79500  0.39200  0.20900  Biso   1.000  O 
  O4       1.0000 0.87400  0.85600  0.26200  Biso   1.000  O 
  O5       1.0000 0.24000  0.79600  0.43500  Biso   1.000  O 
  O6       1.0000 0.78400  0.63700  0.49800  Biso   1.000  O 
  O7       1.0000 0.78700  0.14000  0.50200  Biso   1.000  O 
  O8       1.0000 0.30500  0.36100  0.56500  Biso   1.000  O 
  O9       1.0000 0.11200  0.59500  0.73800  Biso   1.000  O 
  O10      1.0000 0.08620  0.18400  0.79100  Biso   1.000  O 
  O11      1.0000 0.56300  0.18600  0.85400  Biso   1.000  O 
  O12      1.0000 0.73200  0.71500  0.89900  Biso   1.000  O 
  P1       1.0000 0.92900  0.66300  0.35300  Biso   1.000  P 
  P2       1.0000 0.07560  0.31000  0.64700  Biso   1.000  P 
