data_image0
_cell_length_a       5.7938
_cell_length_b       5.7938
_cell_length_c       3.41728
_cell_angle_alpha    90
_cell_angle_beta     90
_cell_angle_gamma    119.998

_symmetry_space_group_name_H-M    "P 1"
_symmetry_int_tables_number       1

loop_
  _symmetry_equiv_pos_as_xyz
  'x, y, z'

loop_
  _atom_site_label
  _atom_site_occupancy
  _atom_site_fract_x
  _atom_site_fract_y
  _atom_site_fract_z
  _atom_site_thermal_displace_type
  _atom_site_B_iso_or_equiv
  _atom_site_type_symbol
  Fe1      1.0000 0.25700  0.00005  0.00000  Biso   1.000  Fe
  Fe2      1.0000 0.00005  0.25700  0.00000  Biso   1.000  Fe
  Fe3      1.0000 0.74300  0.74300  0.00000  Biso   1.000  Fe
  Fe4      1.0000 0.59100  0.00002  0.50000  Biso   1.000  Fe
  Fe5      1.0000 0.40900  0.40900  0.50000  Biso   1.000  Fe
  Fe6      1.0000 0.00002  0.59100  0.50000  Biso   1.000  Fe
  P1       1.0000 0.66700  0.33300  0.00000  Biso   1.000  P 
  P2       1.0000 0.33300  0.66700  0.00000  Biso   1.000  P 
  P3       1.0000 1.00000  1.00000  0.50000  Biso   1.000  P 
