data_image0
_cell_length_a       3.67967
_cell_length_b       3.70373
_cell_length_c       7.62426
_cell_angle_alpha    75.9428
_cell_angle_beta     90
_cell_angle_gamma    90

_symmetry_space_group_name_H-M    "P 1"
_symmetry_int_tables_number       1

loop_
  _symmetry_equiv_pos_as_xyz
  'x, y, z'

loop_
  _atom_site_label
  _atom_site_occupancy
  _atom_site_fract_x
  _atom_site_fract_y
  _atom_site_fract_z
  _atom_site_thermal_displace_type
  _atom_site_B_iso_or_equiv
  _atom_site_type_symbol
  Si1      1.0000 0.75000  0.44700  0.10600  Biso   1.000  Si
  Si2      1.0000 0.25000  0.25000  0.49900  Biso   1.000  Si
  Si3      1.0000 0.75000  0.75000  0.50100  Biso   1.000  Si
  Si4      1.0000 0.25000  0.55300  0.89400  Biso   1.000  Si
  Zr1      1.0000 0.25000  0.89500  0.21100  Biso   1.000  Zr
  Zr2      1.0000 0.75000  0.10500  0.78900  Biso   1.000  Zr
