data_image0
_cell_length_a       8.55229
_cell_length_b       8.55229
_cell_length_c       5.54527
_cell_angle_alpha    90
_cell_angle_beta     90
_cell_angle_gamma    119.999

_symmetry_space_group_name_H-M    "P 1"
_symmetry_int_tables_number       1

loop_
  _symmetry_equiv_pos_as_xyz
  'x, y, z'

loop_
  _atom_site_label
  _atom_site_occupancy
  _atom_site_fract_x
  _atom_site_fract_y
  _atom_site_fract_z
  _atom_site_thermal_displace_type
  _atom_site_B_iso_or_equiv
  _atom_site_type_symbol
  Ge1      1.0000 0.60500  0.00000  0.25000  Biso   1.000  Ge
  Ge2      1.0000 0.00000  0.60500  0.25000  Biso   1.000  Ge
  Ge3      1.0000 0.39500  0.39500  0.25000  Biso   1.000  Ge
  Ge4      1.0000 0.39500  0.00001  0.75000  Biso   1.000  Ge
  Ge5      1.0000 0.00001  0.39500  0.75000  Biso   1.000  Ge
  Ge6      1.0000 0.60500  0.60500  0.75000  Biso   1.000  Ge
  U1       1.0000 0.66700  0.33300  0.00000  Biso   1.000  U 
  U2       1.0000 0.33300  0.66700  0.00000  Biso   1.000  U 
  U3       1.0000 0.23100  0.00000  0.25000  Biso   1.000  U 
  U4       1.0000 0.00000  0.23100  0.25000  Biso   1.000  U 
  U5       1.0000 0.76900  0.76900  0.25000  Biso   1.000  U 
  U6       1.0000 0.66700  0.33300  0.50000  Biso   1.000  U 
  U7       1.0000 0.33300  0.66700  0.50000  Biso   1.000  U 
  U8       1.0000 0.76900  0.00000  0.75000  Biso   1.000  U 
  U9       1.0000 0.00000  0.76900  0.75000  Biso   1.000  U 
  U10      1.0000 0.23100  0.23100  0.75000  Biso   1.000  U 
