data_image0
_cell_length_a       5.64802
_cell_length_b       4.07024
_cell_length_c       6.47895
_cell_angle_alpha    90
_cell_angle_beta     107.317
_cell_angle_gamma    90

_symmetry_space_group_name_H-M    "P 1"
_symmetry_int_tables_number       1

loop_
  _symmetry_equiv_pos_as_xyz
  'x, y, z'

loop_
  _atom_site_label
  _atom_site_occupancy
  _atom_site_fract_x
  _atom_site_fract_y
  _atom_site_fract_z
  _atom_site_thermal_displace_type
  _atom_site_B_iso_or_equiv
  _atom_site_type_symbol
  Cl1      1.0000 0.75300  0.74400  0.18800  Biso   1.000  Cl
  Cl2      1.0000 0.24700  0.24400  0.31200  Biso   1.000  Cl
  Cl3      1.0000 0.75300  0.75600  0.68800  Biso   1.000  Cl
  Cl4      1.0000 0.24700  0.25600  0.81200  Biso   1.000  Cl
  Pd1      1.0000 0.00000  0.50000  0.00000  Biso   1.000  Pd
  Pd2      1.0000 0.00000  0.00000  0.50000  Biso   1.000  Pd
