data_image0
_cell_length_a       4.86672
_cell_length_b       9.65091
_cell_length_c       3.1698
_cell_angle_alpha    90
_cell_angle_beta     91.4902
_cell_angle_gamma    90

_symmetry_space_group_name_H-M    "P 1"
_symmetry_int_tables_number       1

loop_
  _symmetry_equiv_pos_as_xyz
  'x, y, z'

loop_
  _atom_site_label
  _atom_site_occupancy
  _atom_site_fract_x
  _atom_site_fract_y
  _atom_site_fract_z
  _atom_site_thermal_displace_type
  _atom_site_B_iso_or_equiv
  _atom_site_type_symbol
  Ag1      1.0000 0.20300  0.07360  0.22200  Biso   1.000  Ag
  Ag2      1.0000 0.20300  0.42600  0.22200  Biso   1.000  Ag
  Ag3      1.0000 0.79700  0.57400  0.77800  Biso   1.000  Ag
  Ag4      1.0000 0.79700  0.92600  0.77800  Biso   1.000  Ag
  C1       1.0000 0.27100  0.75000  0.25600  Biso   1.000  C 
  C2       1.0000 0.72900  0.25000  0.74400  Biso   1.000  C 
  O1       1.0000 0.01870  0.75000  0.10100  Biso   1.000  O 
  O2       1.0000 0.39500  0.63400  0.33500  Biso   1.000  O 
  O3       1.0000 0.39500  0.86600  0.33500  Biso   1.000  O 
  O4       1.0000 0.60500  0.13400  0.66500  Biso   1.000  O 
  O5       1.0000 0.60500  0.36600  0.66500  Biso   1.000  O 
  O6       1.0000 0.98100  0.25000  0.89900  Biso   1.000  O 
