data_image0
_cell_length_a       5.52794
_cell_length_b       8.14992
_cell_length_c       8.15146
_cell_angle_alpha    60.0063
_cell_angle_beta     90
_cell_angle_gamma    90

_symmetry_space_group_name_H-M    "P 1"
_symmetry_int_tables_number       1

loop_
  _symmetry_equiv_pos_as_xyz
  'x, y, z'

loop_
  _atom_site_label
  _atom_site_occupancy
  _atom_site_fract_x
  _atom_site_fract_y
  _atom_site_fract_z
  _atom_site_thermal_displace_type
  _atom_site_B_iso_or_equiv
  _atom_site_type_symbol
  As1      1.0000 0.97500  0.33300  0.33300  Biso   1.000  As
  As2      1.0000 0.47500  0.66700  0.66700  Biso   1.000  As
  K1       1.0000 0.52200  0.64300  0.08550  Biso   1.000  K 
  K2       1.0000 0.52200  0.08560  0.27100  Biso   1.000  K 
  K3       1.0000 0.02160  0.72900  0.35700  Biso   1.000  K 
  K4       1.0000 0.52200  0.27100  0.64300  Biso   1.000  K 
  K5       1.0000 0.02150  0.91400  0.72900  Biso   1.000  K 
  K6       1.0000 0.02160  0.35700  0.91400  Biso   1.000  K 
  O1       1.0000 0.06450  0.55400  0.15200  Biso   1.000  O 
  O2       1.0000 0.06440  0.15200  0.29400  Biso   1.000  O 
  O3       1.0000 0.66500  0.33300  0.33300  Biso   1.000  O 
  O4       1.0000 0.56500  0.70600  0.44600  Biso   1.000  O 
  O5       1.0000 0.06450  0.29400  0.55400  Biso   1.000  O 
  O6       1.0000 0.16500  0.66700  0.66700  Biso   1.000  O 
  O7       1.0000 0.56400  0.84800  0.70600  Biso   1.000  O 
  O8       1.0000 0.56500  0.44600  0.84800  Biso   1.000  O 
