data_image0
_cell_length_a       7.56482
_cell_length_b       7.56482
_cell_length_c       7.56482
_cell_angle_alpha    120
_cell_angle_beta     90
_cell_angle_gamma    120

_symmetry_space_group_name_H-M    "P 1"
_symmetry_int_tables_number       1

loop_
  _symmetry_equiv_pos_as_xyz
  'x, y, z'

loop_
  _atom_site_label
  _atom_site_occupancy
  _atom_site_fract_x
  _atom_site_fract_y
  _atom_site_fract_z
  _atom_site_thermal_displace_type
  _atom_site_B_iso_or_equiv
  _atom_site_type_symbol
  Nd1      1.0000 1.00000  0.50000  0.00000  Biso   1.000  Nd
  Nd2      1.0000 0.50000  0.00000  0.50000  Biso   1.000  Nd
  Nd3      1.0000 0.00000  0.00000  0.50000  Biso   1.000  Nd
  Nd4      1.0000 1.00000  0.50000  0.50000  Biso   1.000  Nd
  O1       1.0000 0.83600  0.75000  0.08650  Biso   1.000  O 
  O2       1.0000 0.83600  0.17300  0.08650  Biso   1.000  O 
  O3       1.0000 0.41400  0.75000  0.08650  Biso   1.000  O 
  O4       1.0000 0.16400  0.25000  0.33600  Biso   1.000  O 
  O5       1.0000 0.58600  0.25000  0.33600  Biso   1.000  O 
  O6       1.0000 0.58600  0.67300  0.33600  Biso   1.000  O 
  O7       1.0000 0.12500  0.75000  0.37500  Biso   1.000  O 
  O8       1.0000 0.87500  0.25000  0.62500  Biso   1.000  O 
  O9       1.0000 0.41400  0.75000  0.66400  Biso   1.000  O 
  O10      1.0000 0.41400  0.32700  0.66400  Biso   1.000  O 
  O11      1.0000 0.83600  0.75000  0.66400  Biso   1.000  O 
  O12      1.0000 0.16400  0.25000  0.91400  Biso   1.000  O 
  O13      1.0000 0.58600  0.25000  0.91400  Biso   1.000  O 
  O14      1.0000 0.16400  0.82700  0.91400  Biso   1.000  O 
  Zr1      1.0000 0.00000  0.00000  0.00000  Biso   1.000  Zr
  Zr2      1.0000 0.50000  0.00000  0.00000  Biso   1.000  Zr
  Zr3      1.0000 0.50000  0.50000  0.00000  Biso   1.000  Zr
  Zr4      1.0000 0.50000  0.50000  0.50000  Biso   1.000  Zr
