data_image0
_cell_length_a       6.71514
_cell_length_b       6.71514
_cell_length_c       6.71514
_cell_angle_alpha    122.954
_cell_angle_beta     122.954
_cell_angle_gamma    84.9555

_symmetry_space_group_name_H-M    "P 1"
_symmetry_int_tables_number       1

loop_
  _symmetry_equiv_pos_as_xyz
  'x, y, z'

loop_
  _atom_site_label
  _atom_site_occupancy
  _atom_site_fract_x
  _atom_site_fract_y
  _atom_site_fract_z
  _atom_site_thermal_displace_type
  _atom_site_B_iso_or_equiv
  _atom_site_type_symbol
  Br1      1.0000 0.91600  0.35400  0.00000  Biso   1.000  Br
  Br2      1.0000 0.35400  0.91600  1.00000  Biso   1.000  Br
  Br3      1.0000 0.08370  0.08370  0.43800  Biso   1.000  Br
  Br4      1.0000 0.64600  0.64600  0.56200  Biso   1.000  Br
  Mo1      1.0000 0.00000  0.00000  0.00000  Biso   1.000  Mo
