data_image0
_cell_length_a       7.31642
_cell_length_b       7.31642
_cell_length_c       7.66833
_cell_angle_alpha    118.493
_cell_angle_beta     61.5068
_cell_angle_gamma    120

_symmetry_space_group_name_H-M    "P 1"
_symmetry_int_tables_number       1

loop_
  _symmetry_equiv_pos_as_xyz
  'x, y, z'

loop_
  _atom_site_label
  _atom_site_occupancy
  _atom_site_fract_x
  _atom_site_fract_y
  _atom_site_fract_z
  _atom_site_thermal_displace_type
  _atom_site_B_iso_or_equiv
  _atom_site_type_symbol
  Ce1      1.0000 0.64500  0.35500  0.06360  Biso   1.000  Ce
  Ce2      1.0000 0.85500  0.14500  0.43600  Biso   1.000  Ce
  Ce3      1.0000 0.14500  0.85500  0.56400  Biso   1.000  Ce
  Ce4      1.0000 0.35500  0.64500  0.93600  Biso   1.000  Ce
  S1       1.0000 0.54400  0.75000  0.25000  Biso   1.000  S 
  S2       1.0000 0.95600  0.45600  0.25000  Biso   1.000  S 
  S3       1.0000 0.25000  0.04370  0.25000  Biso   1.000  S 
  S4       1.0000 0.75000  0.95600  0.75000  Biso   1.000  S 
  S5       1.0000 0.04370  0.54400  0.75000  Biso   1.000  S 
  S6       1.0000 0.45600  0.25000  0.75000  Biso   1.000  S 
