data_image0
_cell_length_a       5.18435
_cell_length_b       5.18435
_cell_length_c       5.18435
_cell_angle_alpha    65.9329
_cell_angle_beta     114.067
_cell_angle_gamma    114.067

_symmetry_space_group_name_H-M    "P 1"
_symmetry_int_tables_number       1

loop_
  _symmetry_equiv_pos_as_xyz
  'x, y, z'

loop_
  _atom_site_label
  _atom_site_occupancy
  _atom_site_fract_x
  _atom_site_fract_y
  _atom_site_fract_z
  _atom_site_thermal_displace_type
  _atom_site_B_iso_or_equiv
  _atom_site_type_symbol
  B1       1.0000 0.67000  0.00618  0.00618  Biso   1.000  B 
  B2       1.0000 0.99400  0.33000  0.00618  Biso   1.000  B 
  B3       1.0000 0.30900  0.19400  0.19400  Biso   1.000  B 
  B4       1.0000 0.80600  0.69100  0.19400  Biso   1.000  B 
  B5       1.0000 0.19400  0.80600  0.30900  Biso   1.000  B 
  B6       1.0000 0.99400  0.00618  0.33000  Biso   1.000  B 
  B7       1.0000 0.00618  0.99400  0.67000  Biso   1.000  B 
  B8       1.0000 0.80600  0.19400  0.69100  Biso   1.000  B 
  B9       1.0000 0.19400  0.30900  0.80600  Biso   1.000  B 
  B10      1.0000 0.69100  0.80600  0.80600  Biso   1.000  B 
  B11      1.0000 0.00618  0.67000  0.99400  Biso   1.000  B 
  B12      1.0000 0.33000  0.99400  0.99400  Biso   1.000  B 
  C1       1.0000 0.61000  0.39000  0.39000  Biso   1.000  C 
  C2       1.0000 0.50000  0.50000  0.50000  Biso   1.000  C 
  C3       1.0000 0.39000  0.61000  0.61000  Biso   1.000  C 
