data_image0
_cell_length_a       3.09289
_cell_length_b       3.09289
_cell_length_c       7.3632
_cell_angle_alpha    77.8763
_cell_angle_beta     102.124
_cell_angle_gamma    120

_symmetry_space_group_name_H-M    "P 1"
_symmetry_int_tables_number       1

loop_
  _symmetry_equiv_pos_as_xyz
  'x, y, z'

loop_
  _atom_site_label
  _atom_site_occupancy
  _atom_site_fract_x
  _atom_site_fract_y
  _atom_site_fract_z
  _atom_site_thermal_displace_type
  _atom_site_B_iso_or_equiv
  _atom_site_type_symbol
  B1       1.0000 0.66900  0.33100  0.00638  Biso   1.000  B 
  B2       1.0000 0.81500  0.18500  0.44500  Biso   1.000  B 
  B3       1.0000 0.50000  0.50000  0.50000  Biso   1.000  B 
  B4       1.0000 0.18500  0.81500  0.55500  Biso   1.000  B 
  B5       1.0000 0.33100  0.66900  0.99400  Biso   1.000  B 
  W1       1.0000 0.07650  0.92300  0.23000  Biso   1.000  W 
  W2       1.0000 0.92300  0.07650  0.77000  Biso   1.000  W 
