data_image0
_cell_length_a       7.18525
_cell_length_b       7.18525
_cell_length_c       7.56212
_cell_angle_alpha    118.365
_cell_angle_beta     61.6353
_cell_angle_gamma    120

_symmetry_space_group_name_H-M    "P 1"
_symmetry_int_tables_number       1

loop_
  _symmetry_equiv_pos_as_xyz
  'x, y, z'

loop_
  _atom_site_label
  _atom_site_occupancy
  _atom_site_fract_x
  _atom_site_fract_y
  _atom_site_fract_z
  _atom_site_thermal_displace_type
  _atom_site_B_iso_or_equiv
  _atom_site_type_symbol
  Nd1      1.0000 0.64700  0.35300  0.06010  Biso   1.000  Nd
  Nd2      1.0000 0.85300  0.14700  0.44000  Biso   1.000  Nd
  Nd3      1.0000 0.14700  0.85300  0.56000  Biso   1.000  Nd
  Nd4      1.0000 0.35300  0.64700  0.94000  Biso   1.000  Nd
  S1       1.0000 0.25000  0.04580  0.25000  Biso   1.000  S 
  S2       1.0000 0.54600  0.75000  0.25000  Biso   1.000  S 
  S3       1.0000 0.95400  0.45400  0.25000  Biso   1.000  S 
  S4       1.0000 0.04580  0.54600  0.75000  Biso   1.000  S 
  S5       1.0000 0.45400  0.25000  0.75000  Biso   1.000  S 
  S6       1.0000 0.75000  0.95400  0.75000  Biso   1.000  S 
