data_image0
_cell_length_a       4.30171
_cell_length_b       4.30171
_cell_length_c       7.62145
_cell_angle_alpha    106.392
_cell_angle_beta     106.392
_cell_angle_gamma    90

_symmetry_space_group_name_H-M    "P 1"
_symmetry_int_tables_number       1

loop_
  _symmetry_equiv_pos_as_xyz
  'x, y, z'

loop_
  _atom_site_label
  _atom_site_occupancy
  _atom_site_fract_x
  _atom_site_fract_y
  _atom_site_fract_z
  _atom_site_thermal_displace_type
  _atom_site_B_iso_or_equiv
  _atom_site_type_symbol
  Ce1      1.0000 0.00000  0.00000  0.00000  Biso   1.000  Ce
  Ce2      1.0000 0.25000  0.75000  0.50000  Biso   1.000  Ce
  Si1      1.0000 0.58500  0.58500  0.17000  Biso   1.000  Si
  Si2      1.0000 0.66500  0.16500  0.33000  Biso   1.000  Si
  Si3      1.0000 0.83500  0.33500  0.67000  Biso   1.000  Si
  Si4      1.0000 0.41500  0.41500  0.83000  Biso   1.000  Si
