data_image0
_cell_length_a       6.38658
_cell_length_b       6.38658
_cell_length_c       7.02834
_cell_angle_alpha    117.023
_cell_angle_beta     62.9772
_cell_angle_gamma    120

_symmetry_space_group_name_H-M    "P 1"
_symmetry_int_tables_number       1

loop_
  _symmetry_equiv_pos_as_xyz
  'x, y, z'

loop_
  _atom_site_label
  _atom_site_occupancy
  _atom_site_fract_x
  _atom_site_fract_y
  _atom_site_fract_z
  _atom_site_thermal_displace_type
  _atom_site_B_iso_or_equiv
  _atom_site_type_symbol
  Cl1      1.0000 0.28000  0.07940  0.23800  Biso   1.000  Cl
  Cl2      1.0000 0.92100  0.43900  0.23800  Biso   1.000  Cl
  Cl3      1.0000 0.56100  0.72000  0.23800  Biso   1.000  Cl
  Cl4      1.0000 0.43900  0.28000  0.76200  Biso   1.000  Cl
  Cl5      1.0000 0.07940  0.56100  0.76200  Biso   1.000  Cl
  Cl6      1.0000 0.72000  0.92100  0.76200  Biso   1.000  Cl
  Sc1      1.0000 0.33300  0.66700  1.00000  Biso   1.000  Sc
  Sc2      1.0000 0.66700  0.33300  0.00020  Biso   1.000  Sc
