data_image0
_cell_length_a       4.16748
_cell_length_b       4.16748
_cell_length_c       4.16748
_cell_angle_alpha    99.9591
_cell_angle_beta     80.0409
_cell_angle_gamma    99.9591

_symmetry_space_group_name_H-M    "P 1"
_symmetry_int_tables_number       1

loop_
  _symmetry_equiv_pos_as_xyz
  'x, y, z'

loop_
  _atom_site_label
  _atom_site_occupancy
  _atom_site_fract_x
  _atom_site_fract_y
  _atom_site_fract_z
  _atom_site_thermal_displace_type
  _atom_site_B_iso_or_equiv
  _atom_site_type_symbol
  K1       1.0000 0.99900  0.00090  0.99900  Biso   1.000  K 
  N1       1.0000 0.42800  0.57200  0.42800  Biso   1.000  N 
  O1       1.0000 0.56300  0.43700  0.15300  Biso   1.000  O 
  O2       1.0000 0.15300  0.43700  0.56300  Biso   1.000  O 
  O3       1.0000 0.56300  0.84700  0.56300  Biso   1.000  O 
