data_image0
_cell_length_a       4.32181
_cell_length_b       4.32181
_cell_length_c       4.32181
_cell_angle_alpha    103.874
_cell_angle_beta     76.1257
_cell_angle_gamma    103.874

_symmetry_space_group_name_H-M    "P 1"
_symmetry_int_tables_number       1

loop_
  _symmetry_equiv_pos_as_xyz
  'x, y, z'

loop_
  _atom_site_label
  _atom_site_occupancy
  _atom_site_fract_x
  _atom_site_fract_y
  _atom_site_fract_z
  _atom_site_thermal_displace_type
  _atom_site_B_iso_or_equiv
  _atom_site_type_symbol
  Ba1      1.0000 0.02430  0.97600  0.02430  Biso   1.000  Ba
  C1       1.0000 0.46800  0.53200  0.46800  Biso   1.000  C 
  O1       1.0000 0.60600  0.39400  0.18400  Biso   1.000  O 
  O2       1.0000 0.18400  0.39400  0.60600  Biso   1.000  O 
  O3       1.0000 0.60600  0.81600  0.60600  Biso   1.000  O 
