data_image0
_cell_length_a       4.22869
_cell_length_b       7.64255
_cell_length_c       10.046
_cell_angle_alpha    90
_cell_angle_beta     90
_cell_angle_gamma    106.061

_symmetry_space_group_name_H-M    "P 1"
_symmetry_int_tables_number       1

loop_
  _symmetry_equiv_pos_as_xyz
  'x, y, z'

loop_
  _atom_site_label
  _atom_site_occupancy
  _atom_site_fract_x
  _atom_site_fract_y
  _atom_site_fract_z
  _atom_site_thermal_displace_type
  _atom_site_B_iso_or_equiv
  _atom_site_type_symbol
  I1       1.0000 0.64900  0.29800  0.06900  Biso   1.000  I 
  I2       1.0000 0.91300  0.82600  0.25000  Biso   1.000  I 
  I3       1.0000 0.64900  0.29800  0.43100  Biso   1.000  I 
  I4       1.0000 0.35100  0.70200  0.56900  Biso   1.000  I 
  I5       1.0000 0.08680  0.17400  0.75000  Biso   1.000  I 
  I6       1.0000 0.35100  0.70200  0.93100  Biso   1.000  I 
  Pu1      1.0000 0.25800  0.51700  0.25000  Biso   1.000  Pu
  Pu2      1.0000 0.74200  0.48300  0.75000  Biso   1.000  Pu
