data_image0
_cell_length_a       4.06271
_cell_length_b       4.06271
_cell_length_c       4.06271
_cell_angle_alpha    89.3924
_cell_angle_beta     89.3924
_cell_angle_gamma    89.3924

_symmetry_space_group_name_H-M    "P 1"
_symmetry_int_tables_number       1

loop_
  _symmetry_equiv_pos_as_xyz
  'x, y, z'

loop_
  _atom_site_label
  _atom_site_occupancy
  _atom_site_fract_x
  _atom_site_fract_y
  _atom_site_fract_z
  _atom_site_thermal_displace_type
  _atom_site_B_iso_or_equiv
  _atom_site_type_symbol
  Ni1      1.0000 0.75600  0.50000  0.24400  Biso   1.000  Ni
  Ni2      1.0000 0.24400  0.75600  0.50000  Biso   1.000  Ni
  Ni3      1.0000 0.50000  0.24400  0.75600  Biso   1.000  Ni
  S1       1.0000 0.25400  0.25400  0.25400  Biso   1.000  S 
  S2       1.0000 0.74600  0.74600  0.74600  Biso   1.000  S 
