data_image0
_cell_length_a       8.34911
_cell_length_b       6.63694
_cell_length_c       4.79593
_cell_angle_alpha    90
_cell_angle_beta     90
_cell_angle_gamma    90

_symmetry_space_group_name_H-M    "P 1"
_symmetry_int_tables_number       1

loop_
  _symmetry_equiv_pos_as_xyz
  'x, y, z'

loop_
  _atom_site_label
  _atom_site_occupancy
  _atom_site_fract_x
  _atom_site_fract_y
  _atom_site_fract_z
  _atom_site_thermal_displace_type
  _atom_site_B_iso_or_equiv
  _atom_site_type_symbol
  Cu1      1.0000 0.00000  0.00000  0.00000  Biso   1.000  Cu
  Cu2      1.0000 0.00000  0.50000  0.00000  Biso   1.000  Cu
  Cu3      1.0000 0.50000  0.00000  0.50000  Biso   1.000  Cu
  Cu4      1.0000 0.50000  0.50000  0.50000  Biso   1.000  Cu
  O1       1.0000 0.87000  0.25000  0.07080  Biso   1.000  O 
  O2       1.0000 0.63400  0.06240  0.18400  Biso   1.000  O 
  O3       1.0000 0.63400  0.43800  0.18400  Biso   1.000  O 
  O4       1.0000 0.36300  0.75000  0.24700  Biso   1.000  O 
  O5       1.0000 0.86300  0.75000  0.25300  Biso   1.000  O 
  O6       1.0000 0.13400  0.06240  0.31600  Biso   1.000  O 
  O7       1.0000 0.13400  0.43800  0.31600  Biso   1.000  O 
  O8       1.0000 0.37000  0.25000  0.42900  Biso   1.000  O 
  O9       1.0000 0.63000  0.75000  0.57100  Biso   1.000  O 
  O10      1.0000 0.86600  0.56200  0.68400  Biso   1.000  O 
  O11      1.0000 0.86600  0.93800  0.68400  Biso   1.000  O 
  O12      1.0000 0.13700  0.25000  0.74700  Biso   1.000  O 
  O13      1.0000 0.63700  0.25000  0.75300  Biso   1.000  O 
  O14      1.0000 0.36600  0.56200  0.81600  Biso   1.000  O 
  O15      1.0000 0.36600  0.93800  0.81600  Biso   1.000  O 
  O16      1.0000 0.13000  0.75000  0.92900  Biso   1.000  O 
  S1       1.0000 0.68500  0.25000  0.04560  Biso   1.000  S 
  S2       1.0000 0.18500  0.25000  0.45400  Biso   1.000  S 
  S3       1.0000 0.81500  0.75000  0.54600  Biso   1.000  S 
  S4       1.0000 0.31500  0.75000  0.95400  Biso   1.000  S 
