data_image0
_cell_length_a       6.60813
_cell_length_b       6.60813
_cell_length_c       8.42975
_cell_angle_alpha    90
_cell_angle_beta     90
_cell_angle_gamma    123.599

_symmetry_space_group_name_H-M    "P 1"
_symmetry_int_tables_number       1

loop_
  _symmetry_equiv_pos_as_xyz
  'x, y, z'

loop_
  _atom_site_label
  _atom_site_occupancy
  _atom_site_fract_x
  _atom_site_fract_y
  _atom_site_fract_z
  _atom_site_thermal_displace_type
  _atom_site_B_iso_or_equiv
  _atom_site_type_symbol
  As1      1.0000 0.38100  0.61900  0.11600  Biso   1.000  As
  As2      1.0000 0.88100  0.11900  0.38400  Biso   1.000  As
  As3      1.0000 0.11900  0.88100  0.61600  Biso   1.000  As
  As4      1.0000 0.61900  0.38100  0.88400  Biso   1.000  As
  Mn1      1.0000 0.00000  0.00000  0.00000  Biso   1.000  Mn
  Mn2      1.0000 0.39200  0.10800  0.25000  Biso   1.000  Mn
  Mn3      1.0000 0.89200  0.60800  0.25000  Biso   1.000  Mn
  Mn4      1.0000 0.50000  0.50000  0.50000  Biso   1.000  Mn
  Mn5      1.0000 0.10800  0.39200  0.75000  Biso   1.000  Mn
  Mn6      1.0000 0.60800  0.89200  0.75000  Biso   1.000  Mn
  O1       1.0000 0.15100  0.39100  0.00348  Biso   1.000  O 
  O2       1.0000 0.60900  0.84900  0.00348  Biso   1.000  O 
  O3       1.0000 0.26000  0.74000  0.23200  Biso   1.000  O 
  O4       1.0000 0.50000  0.50000  0.24400  Biso   1.000  O 
  O5       1.0000 0.00000  0.00000  0.25600  Biso   1.000  O 
  O6       1.0000 0.76000  0.24000  0.26800  Biso   1.000  O 
  O7       1.0000 0.10900  0.34900  0.49700  Biso   1.000  O 
  O8       1.0000 0.65100  0.89100  0.49700  Biso   1.000  O 
  O9       1.0000 0.34900  0.10900  0.50300  Biso   1.000  O 
  O10      1.0000 0.89100  0.65100  0.50300  Biso   1.000  O 
  O11      1.0000 0.24000  0.76000  0.73200  Biso   1.000  O 
  O12      1.0000 0.00000  0.00000  0.74400  Biso   1.000  O 
  O13      1.0000 0.50000  0.50000  0.75600  Biso   1.000  O 
  O14      1.0000 0.74000  0.26000  0.76800  Biso   1.000  O 
  O15      1.0000 0.39100  0.15100  0.99700  Biso   1.000  O 
  O16      1.0000 0.84900  0.60900  0.99700  Biso   1.000  O 
