data_image0
_cell_length_a       4.14932
_cell_length_b       4.14932
_cell_length_c       4.14932
_cell_angle_alpha    90
_cell_angle_beta     90
_cell_angle_gamma    90

_symmetry_space_group_name_H-M    "P 1"
_symmetry_int_tables_number       1

loop_
  _symmetry_equiv_pos_as_xyz
  'x, y, z'

loop_
  _atom_site_label
  _atom_site_occupancy
  _atom_site_fract_x
  _atom_site_fract_y
  _atom_site_fract_z
  _atom_site_thermal_displace_type
  _atom_site_B_iso_or_equiv
  _atom_site_type_symbol
  B1       1.0000 0.50000  0.50000  0.20000  Biso   1.000  B 
  B2       1.0000 0.50000  0.20000  0.50000  Biso   1.000  B 
  B3       1.0000 0.20000  0.50000  0.50000  Biso   1.000  B 
  B4       1.0000 0.80000  0.50000  0.50000  Biso   1.000  B 
  B5       1.0000 0.50000  0.80000  0.50000  Biso   1.000  B 
  B6       1.0000 0.50000  0.50000  0.80000  Biso   1.000  B 
  La1      1.0000 0.00000  0.00000  0.00000  Biso   1.000  La
