data_image0
_cell_length_a       5.00475
_cell_length_b       5.10643
_cell_length_c       7.5371
_cell_angle_alpha    109.681
_cell_angle_beta     109.209
_cell_angle_gamma    89.9486

_symmetry_space_group_name_H-M    "P 1"
_symmetry_int_tables_number       1

loop_
  _symmetry_equiv_pos_as_xyz
  'x, y, z'

loop_
  _atom_site_label
  _atom_site_occupancy
  _atom_site_fract_x
  _atom_site_fract_y
  _atom_site_fract_z
  _atom_site_thermal_displace_type
  _atom_site_B_iso_or_equiv
  _atom_site_type_symbol
  Cu1      1.0000 0.00000  0.00000  0.00000  Biso   1.000  Cu
  Cu2      1.0000 0.50000  0.50000  0.50000  Biso   1.000  Cu
  H1       1.0000 0.13900  0.58300  0.20200  Biso   1.000  H 
  H2       1.0000 0.98900  0.48200  0.33100  Biso   1.000  H 
  H3       1.0000 0.01070  0.51800  0.66900  Biso   1.000  H 
  H4       1.0000 0.86100  0.41700  0.79800  Biso   1.000  H 
  O1       1.0000 0.75300  0.82500  0.09820  Biso   1.000  O 
  O2       1.0000 0.29500  0.83200  0.14300  Biso   1.000  O 
  O3       1.0000 0.13800  0.44100  0.26500  Biso   1.000  O 
  O4       1.0000 0.66800  0.23700  0.33100  Biso   1.000  O 
  O5       1.0000 0.71100  0.79900  0.40300  Biso   1.000  O 
  O6       1.0000 0.28900  0.20100  0.59700  Biso   1.000  O 
  O7       1.0000 0.33200  0.76300  0.66900  Biso   1.000  O 
  O8       1.0000 0.86200  0.55900  0.73500  Biso   1.000  O 
  O9       1.0000 0.70500  0.16800  0.85700  Biso   1.000  O 
  O10      1.0000 0.24700  0.17500  0.90200  Biso   1.000  O 
  S1       1.0000 0.61000  0.92200  0.24600  Biso   1.000  S 
  S2       1.0000 0.39000  0.07810  0.75400  Biso   1.000  S 
