data_image0
_cell_length_a       8.17299
_cell_length_b       9.1507
_cell_length_c       7.94954
_cell_angle_alpha    90
_cell_angle_beta     108.484
_cell_angle_gamma    90

_symmetry_space_group_name_H-M    "P 1"
_symmetry_int_tables_number       1

loop_
  _symmetry_equiv_pos_as_xyz
  'x, y, z'

loop_
  _atom_site_label
  _atom_site_occupancy
  _atom_site_fract_x
  _atom_site_fract_y
  _atom_site_fract_z
  _atom_site_thermal_displace_type
  _atom_site_B_iso_or_equiv
  _atom_site_type_symbol
  Cu1      1.0000 0.82800  0.49200  0.24300  Biso   1.000  Cu
  Cu2      1.0000 0.67200  0.99200  0.25700  Biso   1.000  Cu
  Cu3      1.0000 0.17200  0.50800  0.75700  Biso   1.000  Cu
  Cu4      1.0000 0.32800  0.00800  0.74300  Biso   1.000  Cu
  Cu5      1.0000 0.15800  0.49900  0.17500  Biso   1.000  Cu
  Cu6      1.0000 0.34200  0.99900  0.32500  Biso   1.000  Cu
  Cu7      1.0000 0.84200  0.50100  0.82500  Biso   1.000  Cu
  Cu8      1.0000 0.65800  0.00080  0.67500  Biso   1.000  Cu
  Mo1      1.0000 0.04800  0.81400  0.90400  Biso   1.000  Mo
  Mo2      1.0000 0.45200  0.31400  0.59600  Biso   1.000  Mo
  Mo3      1.0000 0.95200  0.18600  0.09640  Biso   1.000  Mo
  Mo4      1.0000 0.54800  0.68600  0.40400  Biso   1.000  Mo
  Mo5      1.0000 0.44600  0.27900  0.08290  Biso   1.000  Mo
  Mo6      1.0000 0.05370  0.77900  0.41700  Biso   1.000  Mo
  Mo7      1.0000 0.55400  0.72100  0.91700  Biso   1.000  Mo
  Mo8      1.0000 0.94600  0.22100  0.58300  Biso   1.000  Mo
  O1       1.0000 0.06200  0.60900  0.91500  Biso   1.000  O 
  O2       1.0000 0.43800  0.10900  0.58500  Biso   1.000  O 
  O3       1.0000 0.93800  0.39100  0.08460  Biso   1.000  O 
  O4       1.0000 0.56200  0.89100  0.41500  Biso   1.000  O 
  O5       1.0000 0.24700  0.90000  0.90700  Biso   1.000  O 
  O6       1.0000 0.25300  0.40000  0.59300  Biso   1.000  O 
  O7       1.0000 0.75300  0.10000  0.09260  Biso   1.000  O 
  O8       1.0000 0.74700  0.60000  0.40700  Biso   1.000  O 
  O9       1.0000 0.85500  0.87900  0.74800  Biso   1.000  O 
  O10      1.0000 0.64500  0.37900  0.75200  Biso   1.000  O 
  O11      1.0000 0.14500  0.12100  0.25200  Biso   1.000  O 
  O12      1.0000 0.35500  0.62100  0.24800  Biso   1.000  O 
  O13      1.0000 0.03540  0.85100  0.11600  Biso   1.000  O 
  O14      1.0000 0.46500  0.35100  0.38400  Biso   1.000  O 
  O15      1.0000 0.96500  0.14900  0.88400  Biso   1.000  O 
  O16      1.0000 0.53500  0.64900  0.61600  Biso   1.000  O 
  O17      1.0000 0.46100  0.09820  0.19100  Biso   1.000  O 
  O18      1.0000 0.03860  0.59800  0.30900  Biso   1.000  O 
  O19      1.0000 0.53900  0.90200  0.80900  Biso   1.000  O 
  O20      1.0000 0.96100  0.40200  0.69100  Biso   1.000  O 
  O21      1.0000 0.24000  0.36200  0.04360  Biso   1.000  O 
  O22      1.0000 0.26000  0.86200  0.45600  Biso   1.000  O 
  O23      1.0000 0.76000  0.63800  0.95600  Biso   1.000  O 
  O24      1.0000 0.74000  0.13800  0.54400  Biso   1.000  O 
  O25      1.0000 0.61500  0.40800  0.13200  Biso   1.000  O 
  O26      1.0000 0.88500  0.90800  0.36800  Biso   1.000  O 
  O27      1.0000 0.38500  0.59200  0.86800  Biso   1.000  O 
  O28      1.0000 0.11500  0.09240  0.63200  Biso   1.000  O 
  O29      1.0000 0.42500  0.22400  0.86500  Biso   1.000  O 
  O30      1.0000 0.07520  0.72400  0.63500  Biso   1.000  O 
  O31      1.0000 0.57500  0.77600  0.13500  Biso   1.000  O 
  O32      1.0000 0.92500  0.27600  0.36500  Biso   1.000  O 
