data_image0
_cell_length_a       4.46204
_cell_length_b       4.98615
_cell_length_c       6.20098
_cell_angle_alpha    96.9463
_cell_angle_beta     111.087
_cell_angle_gamma    90.0002

_symmetry_space_group_name_H-M    "P 1"
_symmetry_int_tables_number       1

loop_
  _symmetry_equiv_pos_as_xyz
  'x, y, z'

loop_
  _atom_site_label
  _atom_site_occupancy
  _atom_site_fract_x
  _atom_site_fract_y
  _atom_site_fract_z
  _atom_site_thermal_displace_type
  _atom_site_B_iso_or_equiv
  _atom_site_type_symbol
  C1       1.0000 0.43000  0.07890  0.22700  Biso   1.000  C 
  C2       1.0000 0.79700  0.57900  0.22700  Biso   1.000  C 
  C3       1.0000 0.57000  0.92100  0.77300  Biso   1.000  C 
  C4       1.0000 0.20300  0.42100  0.77300  Biso   1.000  C 
  Mn1      1.0000 0.43000  0.75000  0.00000  Biso   1.000  Mn
  Mn2      1.0000 0.57000  0.25000  0.00000  Biso   1.000  Mn
  Mn3      1.0000 0.01140  0.92000  0.20100  Biso   1.000  Mn
  Mn4      1.0000 0.18900  0.42000  0.20100  Biso   1.000  Mn
  Mn5      1.0000 0.80700  0.30700  0.43400  Biso   1.000  Mn
  Mn6      1.0000 0.62600  0.80700  0.43400  Biso   1.000  Mn
  Mn7      1.0000 0.37400  0.19300  0.56600  Biso   1.000  Mn
  Mn8      1.0000 0.19300  0.69300  0.56600  Biso   1.000  Mn
  Mn9      1.0000 0.81100  0.58000  0.79900  Biso   1.000  Mn
  Mn10     1.0000 0.98900  0.08040  0.79900  Biso   1.000  Mn
