data_image0
_cell_length_a       5.68901
_cell_length_b       5.68935
_cell_length_c       7.47656
_cell_angle_alpha    89.9953
_cell_angle_beta     89.9996
_cell_angle_gamma    60.0021

_symmetry_space_group_name_H-M    "P 1"
_symmetry_int_tables_number       1

loop_
  _symmetry_equiv_pos_as_xyz
  'x, y, z'

loop_
  _atom_site_label
  _atom_site_occupancy
  _atom_site_fract_x
  _atom_site_fract_y
  _atom_site_fract_z
  _atom_site_thermal_displace_type
  _atom_site_B_iso_or_equiv
  _atom_site_type_symbol
  Na1      1.0000 0.66700  0.66700  0.12600  Biso   1.000  Na
  Na2      1.0000 0.33300  0.33300  0.46200  Biso   1.000  Na
  Na3      1.0000 0.66700  0.66700  0.53800  Biso   1.000  Na
  Na4      1.0000 0.33300  0.33300  0.87400  Biso   1.000  Na
  O1       1.0000 0.00000  0.00000  0.00000  Biso   1.000  O 
  O2       1.0000 0.83700  0.83600  0.31700  Biso   1.000  O 
  O3       1.0000 0.32700  0.83600  0.31700  Biso   1.000  O 
  O4       1.0000 0.83600  0.32700  0.31700  Biso   1.000  O 
  O5       1.0000 0.16400  0.67300  0.68300  Biso   1.000  O 
  O6       1.0000 0.67300  0.16400  0.68300  Biso   1.000  O 
  O7       1.0000 0.16300  0.16400  0.68300  Biso   1.000  O 
  V1       1.0000 0.00000  0.00000  0.24500  Biso   1.000  V 
  V2       1.0000 0.00000  0.00000  0.75500  Biso   1.000  V 
