data_image0
_cell_length_a       11.1682
_cell_length_b       8.04145
_cell_length_c       5.90073
_cell_angle_alpha    90
_cell_angle_beta     90
_cell_angle_gamma    90

_symmetry_space_group_name_H-M    "P 1"
_symmetry_int_tables_number       1

loop_
  _symmetry_equiv_pos_as_xyz
  'x, y, z'

loop_
  _atom_site_label
  _atom_site_occupancy
  _atom_site_fract_x
  _atom_site_fract_y
  _atom_site_fract_z
  _atom_site_thermal_displace_type
  _atom_site_B_iso_or_equiv
  _atom_site_type_symbol
  K1       1.0000 0.93000  0.25000  0.13900  Biso   1.000  K 
  K2       1.0000 0.64400  0.50800  0.19500  Biso   1.000  K 
  K3       1.0000 0.64400  0.99200  0.19500  Biso   1.000  K 
  K4       1.0000 0.14400  0.50800  0.30500  Biso   1.000  K 
  K5       1.0000 0.14400  0.99200  0.30500  Biso   1.000  K 
  K6       1.0000 0.43000  0.25000  0.36100  Biso   1.000  K 
  K7       1.0000 0.57000  0.75000  0.63900  Biso   1.000  K 
  K8       1.0000 0.85600  0.00809  0.69500  Biso   1.000  K 
  K9       1.0000 0.85600  0.49200  0.69500  Biso   1.000  K 
  K10      1.0000 0.35600  0.00809  0.80500  Biso   1.000  K 
  K11      1.0000 0.35600  0.49200  0.80500  Biso   1.000  K 
  K12      1.0000 0.07020  0.75000  0.86100  Biso   1.000  K 
  O1       1.0000 0.49300  0.75000  0.05070  Biso   1.000  O 
  O2       1.0000 0.26700  0.75000  0.07610  Biso   1.000  O 
  O3       1.0000 0.88900  0.59100  0.13100  Biso   1.000  O 
  O4       1.0000 0.88900  0.90900  0.13100  Biso   1.000  O 
  O5       1.0000 0.38900  0.59100  0.36900  Biso   1.000  O 
  O6       1.0000 0.38900  0.90900  0.36900  Biso   1.000  O 
  O7       1.0000 0.76700  0.75000  0.42400  Biso   1.000  O 
  O8       1.0000 0.99300  0.75000  0.44900  Biso   1.000  O 
  O9       1.0000 0.00700  0.25000  0.55100  Biso   1.000  O 
  O10      1.0000 0.23300  0.25000  0.57600  Biso   1.000  O 
  O11      1.0000 0.61100  0.09070  0.63100  Biso   1.000  O 
  O12      1.0000 0.61100  0.40900  0.63100  Biso   1.000  O 
  O13      1.0000 0.11100  0.09070  0.86900  Biso   1.000  O 
  O14      1.0000 0.11100  0.40900  0.86900  Biso   1.000  O 
  O15      1.0000 0.73300  0.25000  0.92400  Biso   1.000  O 
  O16      1.0000 0.50700  0.25000  0.94900  Biso   1.000  O 
  P1       1.0000 0.38400  0.75000  0.21800  Biso   1.000  P 
  P2       1.0000 0.88400  0.75000  0.28200  Biso   1.000  P 
  P3       1.0000 0.11600  0.25000  0.71800  Biso   1.000  P 
  P4       1.0000 0.61600  0.25000  0.78200  Biso   1.000  P 
