data_image0
_cell_length_a       6.62328
_cell_length_b       6.56187
_cell_length_c       6.49895
_cell_angle_alpha    121.309
_cell_angle_beta     88.2799
_cell_angle_gamma    106.133

_symmetry_space_group_name_H-M    "P 1"
_symmetry_int_tables_number       1

loop_
  _symmetry_equiv_pos_as_xyz
  'x, y, z'

loop_
  _atom_site_label
  _atom_site_occupancy
  _atom_site_fract_x
  _atom_site_fract_y
  _atom_site_fract_z
  _atom_site_thermal_displace_type
  _atom_site_B_iso_or_equiv
  _atom_site_type_symbol
  Re1      1.0000 0.49100  0.05850  0.24700  Biso   1.000  Re
  Re2      1.0000 0.50200  0.51300  0.29900  Biso   1.000  Re
  Re3      1.0000 0.49800  0.48700  0.70100  Biso   1.000  Re
  Re4      1.0000 0.50900  0.94200  0.75300  Biso   1.000  Re
  S1       1.0000 0.68800  0.75200  0.11700  Biso   1.000  S 
  S2       1.0000 0.74900  0.27400  0.11900  Biso   1.000  S 
  S3       1.0000 0.22200  0.25400  0.36900  Biso   1.000  S 
  S4       1.0000 0.28500  0.77600  0.38600  Biso   1.000  S 
  S5       1.0000 0.71500  0.22400  0.61400  Biso   1.000  S 
  S6       1.0000 0.77800  0.74600  0.63100  Biso   1.000  S 
  S7       1.0000 0.25100  0.72600  0.88100  Biso   1.000  S 
  S8       1.0000 0.31200  0.24800  0.88300  Biso   1.000  S 
