data_image0
_cell_length_a       10.4138
_cell_length_b       10.4837
_cell_length_c       3.78849
_cell_angle_alpha    90
_cell_angle_beta     90
_cell_angle_gamma    90

_symmetry_space_group_name_H-M    "P 1"
_symmetry_int_tables_number       1

loop_
  _symmetry_equiv_pos_as_xyz
  'x, y, z'

loop_
  _atom_site_label
  _atom_site_occupancy
  _atom_site_fract_x
  _atom_site_fract_y
  _atom_site_fract_z
  _atom_site_thermal_displace_type
  _atom_site_B_iso_or_equiv
  _atom_site_type_symbol
  S1       1.0000 0.87000  0.05200  0.25000  Biso   1.000  S 
  S2       1.0000 0.20500  0.22600  0.25000  Biso   1.000  S 
  S3       1.0000 0.94600  0.37300  0.25000  Biso   1.000  S 
  S4       1.0000 0.63000  0.55200  0.25000  Biso   1.000  S 
  S5       1.0000 0.29500  0.72600  0.25000  Biso   1.000  S 
  S6       1.0000 0.55400  0.87300  0.25000  Biso   1.000  S 
  S7       1.0000 0.44600  0.12700  0.75000  Biso   1.000  S 
  S8       1.0000 0.70500  0.27400  0.75000  Biso   1.000  S 
  S9       1.0000 0.37000  0.44800  0.75000  Biso   1.000  S 
  S10      1.0000 0.05440  0.62700  0.75000  Biso   1.000  S 
  S11      1.0000 0.79500  0.77400  0.75000  Biso   1.000  S 
  S12      1.0000 0.13000  0.94800  0.75000  Biso   1.000  S 
  U1       1.0000 0.51000  0.31300  0.25000  Biso   1.000  U 
  U2       1.0000 0.18300  0.48900  0.25000  Biso   1.000  U 
  U3       1.0000 0.99000  0.81300  0.25000  Biso   1.000  U 
  U4       1.0000 0.31700  0.98900  0.25000  Biso   1.000  U 
  U5       1.0000 0.68300  0.01060  0.75000  Biso   1.000  U 
  U6       1.0000 0.01010  0.18700  0.75000  Biso   1.000  U 
  U7       1.0000 0.81700  0.51100  0.75000  Biso   1.000  U 
  U8       1.0000 0.49000  0.68700  0.75000  Biso   1.000  U 
