data_image0
_cell_length_a       7.66009
_cell_length_b       3.89307
_cell_length_c       7.65577
_cell_angle_alpha    90
_cell_angle_beta     90
_cell_angle_gamma    90

_symmetry_space_group_name_H-M    "P 1"
_symmetry_int_tables_number       1

loop_
  _symmetry_equiv_pos_as_xyz
  'x, y, z'

loop_
  _atom_site_label
  _atom_site_occupancy
  _atom_site_fract_x
  _atom_site_fract_y
  _atom_site_fract_z
  _atom_site_thermal_displace_type
  _atom_site_B_iso_or_equiv
  _atom_site_type_symbol
  Cl1      1.0000 0.04820  0.01350  0.29700  Biso   1.000  Cl
  Cl2      1.0000 0.54800  0.98700  0.29700  Biso   1.000  Cl
  Cl3      1.0000 0.04820  0.01350  0.70300  Biso   1.000  Cl
  Cl4      1.0000 0.54800  0.98700  0.70300  Biso   1.000  Cl
  O1       1.0000 0.28200  0.00755  0.00000  Biso   1.000  O 
  O2       1.0000 0.02920  0.48800  0.00000  Biso   1.000  O 
  O3       1.0000 0.52900  0.51200  0.00000  Biso   1.000  O 
  O4       1.0000 0.78200  0.99200  0.00000  Biso   1.000  O 
  W1       1.0000 0.51500  0.05700  0.00000  Biso   1.000  W 
  W2       1.0000 0.01460  0.94300  0.00000  Biso   1.000  W 
