data_image0
_cell_length_a       5.26947
_cell_length_b       5.26947
_cell_length_c       11.1766
_cell_angle_alpha    90
_cell_angle_beta     90
_cell_angle_gamma    120

_symmetry_space_group_name_H-M    "P 1"
_symmetry_int_tables_number       1

loop_
  _symmetry_equiv_pos_as_xyz
  'x, y, z'

loop_
  _atom_site_label
  _atom_site_occupancy
  _atom_site_fract_x
  _atom_site_fract_y
  _atom_site_fract_z
  _atom_site_thermal_displace_type
  _atom_site_B_iso_or_equiv
  _atom_site_type_symbol
  Al1      1.0000 0.50000  0.50000  0.16700  Biso   1.000  Al
  Al2      1.0000 0.50000  0.00000  0.50000  Biso   1.000  Al
  Al3      1.0000 1.00000  0.50000  0.83300  Biso   1.000  Al
  Li1      1.0000 0.00000  0.00000  0.00000  Biso   1.000  Li
  Li2      1.0000 0.00000  0.00000  0.33300  Biso   1.000  Li
  Li3      1.0000 0.00000  0.00000  0.66700  Biso   1.000  Li
  O1       1.0000 0.39700  0.19200  0.07860  Biso   1.000  O 
  O2       1.0000 0.60300  0.80800  0.07860  Biso   1.000  O 
  O3       1.0000 0.19200  0.39700  0.25500  Biso   1.000  O 
  O4       1.0000 0.80800  0.60300  0.25500  Biso   1.000  O 
  O5       1.0000 0.80800  0.20500  0.41200  Biso   1.000  O 
  O6       1.0000 0.19200  0.79500  0.41200  Biso   1.000  O 
  O7       1.0000 0.39700  0.20500  0.58800  Biso   1.000  O 
  O8       1.0000 0.60300  0.79500  0.58800  Biso   1.000  O 
  O9       1.0000 0.20500  0.39700  0.74500  Biso   1.000  O 
  O10      1.0000 0.79500  0.60300  0.74500  Biso   1.000  O 
  O11      1.0000 0.79500  0.19200  0.92100  Biso   1.000  O 
  O12      1.0000 0.20500  0.80800  0.92100  Biso   1.000  O 
  Si1      1.0000 0.50000  0.00000  0.00000  Biso   1.000  Si
  Si2      1.0000 1.00000  0.50000  0.33300  Biso   1.000  Si
  Si3      1.0000 0.50000  0.50000  0.66700  Biso   1.000  Si
