data_image0
_cell_length_a       9.1076
_cell_length_b       9.1076
_cell_length_c       9.1076
_cell_angle_alpha    109.471
_cell_angle_beta     109.471
_cell_angle_gamma    109.471

_symmetry_space_group_name_H-M    "P 1"
_symmetry_int_tables_number       1

loop_
  _symmetry_equiv_pos_as_xyz
  'x, y, z'

loop_
  _atom_site_label
  _atom_site_occupancy
  _atom_site_fract_x
  _atom_site_fract_y
  _atom_site_fract_z
  _atom_site_thermal_displace_type
  _atom_site_B_iso_or_equiv
  _atom_site_type_symbol
  O1       1.0000 0.77300  0.54500  0.53600  Biso   1.000  O 
  O2       1.0000 0.50900  0.23700  0.96400  Biso   1.000  O 
  O3       1.0000 0.72700  0.26300  0.77200  Biso   1.000  O 
  O4       1.0000 0.99100  0.95500  0.72800  Biso   1.000  O 
  O5       1.0000 0.53600  0.77300  0.54500  Biso   1.000  O 
  O6       1.0000 0.54500  0.53600  0.77300  Biso   1.000  O 
  O7       1.0000 0.72800  0.99100  0.95500  Biso   1.000  O 
  O8       1.0000 0.23700  0.96400  0.50900  Biso   1.000  O 
  O9       1.0000 0.96400  0.50900  0.23700  Biso   1.000  O 
  O10      1.0000 0.26300  0.77200  0.72700  Biso   1.000  O 
  O11      1.0000 0.77200  0.72700  0.26300  Biso   1.000  O 
  O12      1.0000 0.95500  0.72800  0.99100  Biso   1.000  O 
  O13      1.0000 0.45500  0.46500  0.22800  Biso   1.000  O 
  O14      1.0000 0.73600  0.22600  0.27200  Biso   1.000  O 
  O15      1.0000 0.04540  0.27400  0.00998  Biso   1.000  O 
  O16      1.0000 0.76400  0.03540  0.49000  Biso   1.000  O 
  O17      1.0000 0.22800  0.45500  0.46500  Biso   1.000  O 
  O18      1.0000 0.46500  0.22800  0.45500  Biso   1.000  O 
  O19      1.0000 0.49000  0.76400  0.03540  Biso   1.000  O 
  O20      1.0000 0.22600  0.27200  0.73600  Biso   1.000  O 
  O21      1.0000 0.27200  0.73600  0.22600  Biso   1.000  O 
  O22      1.0000 0.27400  0.00998  0.04540  Biso   1.000  O 
  O23      1.0000 0.00998  0.04540  0.27400  Biso   1.000  O 
  O24      1.0000 0.03540  0.49000  0.76400  Biso   1.000  O 
  Tl1      1.0000 0.25000  0.71500  0.46500  Biso   1.000  Tl
  Tl2      1.0000 0.75000  0.78500  0.03470  Biso   1.000  Tl
  Tl3      1.0000 0.46500  0.25000  0.71500  Biso   1.000  Tl
  Tl4      1.0000 0.71500  0.46500  0.25000  Biso   1.000  Tl
  Tl5      1.0000 0.03470  0.75000  0.78500  Biso   1.000  Tl
  Tl6      1.0000 0.78500  0.03470  0.75000  Biso   1.000  Tl
  Tl7      1.0000 0.25000  0.21700  0.96700  Biso   1.000  Tl
  Tl8      1.0000 0.75000  0.28300  0.53300  Biso   1.000  Tl
  Tl9      1.0000 0.96700  0.25000  0.21700  Biso   1.000  Tl
  Tl10     1.0000 0.21700  0.96700  0.25000  Biso   1.000  Tl
  Tl11     1.0000 0.53300  0.75000  0.28300  Biso   1.000  Tl
  Tl12     1.0000 0.28300  0.53300  0.75000  Biso   1.000  Tl
  Tl13     1.0000 0.50200  0.50200  0.50200  Biso   1.000  Tl
  Tl14     1.0000 0.50000  0.00000  0.99800  Biso   1.000  Tl
  Tl15     1.0000 0.99800  0.50000  0.00000  Biso   1.000  Tl
  Tl16     1.0000 0.00000  0.99800  0.50000  Biso   1.000  Tl
