data_image0
_cell_length_a       5.23924
_cell_length_b       6.57858
_cell_length_c       6.57858
_cell_angle_alpha    95.4372
_cell_angle_beta     101.501
_cell_angle_gamma    78.4991

_symmetry_space_group_name_H-M    "P 1"
_symmetry_int_tables_number       1

loop_
  _symmetry_equiv_pos_as_xyz
  'x, y, z'

loop_
  _atom_site_label
  _atom_site_occupancy
  _atom_site_fract_x
  _atom_site_fract_y
  _atom_site_fract_z
  _atom_site_thermal_displace_type
  _atom_site_B_iso_or_equiv
  _atom_site_type_symbol
  Ca1      1.0000 0.25000  0.30300  0.30300  Biso   1.000  Ca
  Ca2      1.0000 0.75000  0.69700  0.69700  Biso   1.000  Ca
  Mg1      1.0000 0.75000  0.09000  0.09000  Biso   1.000  Mg
  Mg2      1.0000 0.25000  0.91000  0.91000  Biso   1.000  Mg
  O1       1.0000 0.64200  0.79700  0.02600  Biso   1.000  O 
  O2       1.0000 0.82200  0.38500  0.10700  Biso   1.000  O 
  O3       1.0000 0.14200  0.97400  0.20300  Biso   1.000  O 
  O4       1.0000 0.49400  0.62800  0.33300  Biso   1.000  O 
  O5       1.0000 0.99400  0.66700  0.37200  Biso   1.000  O 
  O6       1.0000 0.67800  0.10700  0.38500  Biso   1.000  O 
  O7       1.0000 0.32200  0.89300  0.61500  Biso   1.000  O 
  O8       1.0000 0.00575  0.33300  0.62800  Biso   1.000  O 
  O9       1.0000 0.50600  0.37200  0.66700  Biso   1.000  O 
  O10      1.0000 0.85800  0.02600  0.79700  Biso   1.000  O 
  O11      1.0000 0.17800  0.61500  0.89300  Biso   1.000  O 
  O12      1.0000 0.35800  0.20300  0.97400  Biso   1.000  O 
  Si1      1.0000 0.73000  0.61900  0.19100  Biso   1.000  Si
  Si2      1.0000 0.23000  0.80900  0.38100  Biso   1.000  Si
  Si3      1.0000 0.77000  0.19100  0.61900  Biso   1.000  Si
  Si4      1.0000 0.27000  0.38100  0.80900  Biso   1.000  Si
