data_image0
_cell_length_a       7.28015
_cell_length_b       7.28036
_cell_length_c       5.60028
_cell_angle_alpha    90
_cell_angle_beta     90
_cell_angle_gamma    119.999

_symmetry_space_group_name_H-M    "P 1"
_symmetry_int_tables_number       1

loop_
  _symmetry_equiv_pos_as_xyz
  'x, y, z'

loop_
  _atom_site_label
  _atom_site_occupancy
  _atom_site_fract_x
  _atom_site_fract_y
  _atom_site_fract_z
  _atom_site_thermal_displace_type
  _atom_site_B_iso_or_equiv
  _atom_site_type_symbol
  Ba1      1.0000 0.33300  0.66700  0.25000  Biso   1.000  Ba
  Ba2      1.0000 0.66700  0.33300  0.75000  Biso   1.000  Ba
  Sn1      1.0000 0.28100  0.14100  0.25000  Biso   1.000  Sn
  Sn2      1.0000 0.85900  0.14100  0.25000  Biso   1.000  Sn
  Sn3      1.0000 0.85900  0.71900  0.25000  Biso   1.000  Sn
  Sn4      1.0000 0.14100  0.28100  0.75000  Biso   1.000  Sn
  Sn5      1.0000 0.14100  0.85900  0.75000  Biso   1.000  Sn
  Sn6      1.0000 0.71900  0.85900  0.75000  Biso   1.000  Sn
