data_image0
_cell_length_a       5.94607
_cell_length_b       7.22833
_cell_length_c       5.27426
_cell_angle_alpha    90
_cell_angle_beta     90
_cell_angle_gamma    90

_symmetry_space_group_name_H-M    "P 1"
_symmetry_int_tables_number       1

loop_
  _symmetry_equiv_pos_as_xyz
  'x, y, z'

loop_
  _atom_site_label
  _atom_site_occupancy
  _atom_site_fract_x
  _atom_site_fract_y
  _atom_site_fract_z
  _atom_site_thermal_displace_type
  _atom_site_B_iso_or_equiv
  _atom_site_type_symbol
  Cu1      1.0000 0.50000  0.00000  0.00000  Biso   1.000  Cu
  Cu2      1.0000 0.50000  0.50000  0.00000  Biso   1.000  Cu
  Cu3      1.0000 0.00000  0.00000  0.50000  Biso   1.000  Cu
  Cu4      1.0000 0.00000  0.50000  0.50000  Biso   1.000  Cu
  O1       1.0000 0.80100  0.56800  0.10100  Biso   1.000  O 
  O2       1.0000 0.80100  0.93200  0.10100  Biso   1.000  O 
  O3       1.0000 0.56300  0.25000  0.15900  Biso   1.000  O 
  O4       1.0000 0.06280  0.25000  0.34100  Biso   1.000  O 
  O5       1.0000 0.30100  0.56800  0.39900  Biso   1.000  O 
  O6       1.0000 0.30100  0.93200  0.39900  Biso   1.000  O 
  O7       1.0000 0.69900  0.06790  0.60100  Biso   1.000  O 
  O8       1.0000 0.69900  0.43200  0.60100  Biso   1.000  O 
  O9       1.0000 0.93700  0.75000  0.65900  Biso   1.000  O 
  O10      1.0000 0.43700  0.75000  0.84100  Biso   1.000  O 
  O11      1.0000 0.19900  0.06790  0.89900  Biso   1.000  O 
  O12      1.0000 0.19900  0.43200  0.89900  Biso   1.000  O 
  Se1      1.0000 0.03040  0.25000  0.00135  Biso   1.000  Se
  Se2      1.0000 0.53000  0.25000  0.49900  Biso   1.000  Se
  Se3      1.0000 0.47000  0.75000  0.50100  Biso   1.000  Se
  Se4      1.0000 0.97000  0.75000  0.99900  Biso   1.000  Se
