data_image0
_cell_length_a       5.58094
_cell_length_b       4.92999
_cell_length_c       5.66048
_cell_angle_alpha    90
_cell_angle_beta     120.595
_cell_angle_gamma    90

_symmetry_space_group_name_H-M    "P 1"
_symmetry_int_tables_number       1

loop_
  _symmetry_equiv_pos_as_xyz
  'x, y, z'

loop_
  _atom_site_label
  _atom_site_occupancy
  _atom_site_fract_x
  _atom_site_fract_y
  _atom_site_fract_z
  _atom_site_thermal_displace_type
  _atom_site_B_iso_or_equiv
  _atom_site_type_symbol
  O1       1.0000 0.60900  0.20000  0.20200  Biso   1.000  O 
  O2       1.0000 0.11300  0.22100  0.23500  Biso   1.000  O 
  O3       1.0000 0.88700  0.72100  0.26500  Biso   1.000  O 
  O4       1.0000 0.39100  0.70000  0.29800  Biso   1.000  O 
  O5       1.0000 0.60900  0.30000  0.70200  Biso   1.000  O 
  O6       1.0000 0.11300  0.27900  0.73500  Biso   1.000  O 
  O7       1.0000 0.88700  0.77900  0.76500  Biso   1.000  O 
  O8       1.0000 0.39100  0.80000  0.79800  Biso   1.000  O 
  W1       1.0000 0.23100  0.99400  0.01450  Biso   1.000  W 
  W2       1.0000 0.76900  0.49400  0.48600  Biso   1.000  W 
  W3       1.0000 0.23100  0.50600  0.51400  Biso   1.000  W 
  W4       1.0000 0.76900  0.00644  0.98600  Biso   1.000  W 
