data_image0
_cell_length_a       6.86786
_cell_length_b       5.6067
_cell_length_c       7.62012
_cell_angle_alpha    89.7277
_cell_angle_beta     98.6822
_cell_angle_gamma    88.8458

_symmetry_space_group_name_H-M    "P 1"
_symmetry_int_tables_number       1

loop_
  _symmetry_equiv_pos_as_xyz
  'x, y, z'

loop_
  _atom_site_label
  _atom_site_occupancy
  _atom_site_fract_x
  _atom_site_fract_y
  _atom_site_fract_z
  _atom_site_thermal_displace_type
  _atom_site_B_iso_or_equiv
  _atom_site_type_symbol
  O1       1.0000 0.82100  0.50500  0.38000  Biso   1.000  O 
  O2       1.0000 0.17900  0.49500  0.62000  Biso   1.000  O 
  O3       1.0000 0.82600  0.99600  0.37800  Biso   1.000  O 
  O4       1.0000 0.17400  0.00406  0.62200  Biso   1.000  O 
  O5       1.0000 0.82600  0.25200  0.72400  Biso   1.000  O 
  O6       1.0000 0.17400  0.74800  0.27600  Biso   1.000  O 
  O7       1.0000 0.81500  0.24700  0.03940  Biso   1.000  O 
  O8       1.0000 0.18500  0.75300  0.96100  Biso   1.000  O 
  O9       1.0000 0.56100  0.04720  0.83800  Biso   1.000  O 
  O10      1.0000 0.43900  0.95300  0.16200  Biso   1.000  O 
  O11      1.0000 0.56800  0.47700  0.84200  Biso   1.000  O 
  O12      1.0000 0.43200  0.52300  0.15800  Biso   1.000  O 
  Pb1      1.0000 0.09130  0.25000  0.36600  Biso   1.000  Pb
  Pb2      1.0000 0.90900  0.75000  0.63400  Biso   1.000  Pb
  Pb3      1.0000 0.20600  0.24800  0.86200  Biso   1.000  Pb
  Pb4      1.0000 0.79400  0.75200  0.13800  Biso   1.000  Pb
  Pb5      1.0000 0.59200  0.25100  0.41600  Biso   1.000  Pb
  Pb6      1.0000 0.40800  0.74900  0.58400  Biso   1.000  Pb
  S1       1.0000 0.69200  0.25600  0.86300  Biso   1.000  S 
  S2       1.0000 0.30800  0.74400  0.13700  Biso   1.000  S 
