data_image0
_cell_length_a       5.22968
_cell_length_b       4.03737
_cell_length_c       17.319
_cell_angle_alpha    90
_cell_angle_beta     90
_cell_angle_gamma    90

_symmetry_space_group_name_H-M    "P 1"
_symmetry_int_tables_number       1

loop_
  _symmetry_equiv_pos_as_xyz
  'x, y, z'

loop_
  _atom_site_label
  _atom_site_occupancy
  _atom_site_fract_x
  _atom_site_fract_y
  _atom_site_fract_z
  _atom_site_thermal_displace_type
  _atom_site_B_iso_or_equiv
  _atom_site_type_symbol
  Ru1      1.0000 0.32600  0.75000  0.02890  Biso   1.000  Ru
  Ru2      1.0000 0.01030  0.25000  0.10700  Biso   1.000  Ru
  Ru3      1.0000 0.65900  0.75000  0.16400  Biso   1.000  Ru
  Ru4      1.0000 0.34600  0.25000  0.23600  Biso   1.000  Ru
  Ru5      1.0000 0.84600  0.25000  0.26400  Biso   1.000  Ru
  Ru6      1.0000 0.15900  0.75000  0.33600  Biso   1.000  Ru
  Ru7      1.0000 0.51000  0.25000  0.39300  Biso   1.000  Ru
  Ru8      1.0000 0.82600  0.75000  0.47100  Biso   1.000  Ru
  Ru9      1.0000 0.17400  0.25000  0.52900  Biso   1.000  Ru
  Ru10     1.0000 0.49000  0.75000  0.60700  Biso   1.000  Ru
  Ru11     1.0000 0.84100  0.25000  0.66400  Biso   1.000  Ru
  Ru12     1.0000 0.15400  0.75000  0.73600  Biso   1.000  Ru
  Ru13     1.0000 0.65400  0.75000  0.76400  Biso   1.000  Ru
  Ru14     1.0000 0.34100  0.25000  0.83600  Biso   1.000  Ru
  Ru15     1.0000 0.99000  0.75000  0.89300  Biso   1.000  Ru
  Ru16     1.0000 0.67400  0.25000  0.97100  Biso   1.000  Ru
  Si1      1.0000 0.85000  0.75000  0.03400  Biso   1.000  Si
  Si2      1.0000 0.50300  0.25000  0.10400  Biso   1.000  Si
  Si3      1.0000 0.12100  0.75000  0.19100  Biso   1.000  Si
  Si4      1.0000 0.62100  0.75000  0.30900  Biso   1.000  Si
  Si5      1.0000 0.00327  0.25000  0.39600  Biso   1.000  Si
  Si6      1.0000 0.35000  0.75000  0.46600  Biso   1.000  Si
  Si7      1.0000 0.65000  0.25000  0.53400  Biso   1.000  Si
  Si8      1.0000 0.99700  0.75000  0.60400  Biso   1.000  Si
  Si9      1.0000 0.37900  0.25000  0.69100  Biso   1.000  Si
  Si10     1.0000 0.87900  0.25000  0.80900  Biso   1.000  Si
  Si11     1.0000 0.49700  0.75000  0.89600  Biso   1.000  Si
  Si12     1.0000 0.15000  0.25000  0.96600  Biso   1.000  Si
