data_image0
_cell_length_a       4.03222
_cell_length_b       4.17974
_cell_length_c       7.50963
_cell_angle_alpha    90
_cell_angle_beta     74.4268
_cell_angle_gamma    90

_symmetry_space_group_name_H-M    "P 1"
_symmetry_int_tables_number       1

loop_
  _symmetry_equiv_pos_as_xyz
  'x, y, z'

loop_
  _atom_site_label
  _atom_site_occupancy
  _atom_site_fract_x
  _atom_site_fract_y
  _atom_site_fract_z
  _atom_site_thermal_displace_type
  _atom_site_B_iso_or_equiv
  _atom_site_type_symbol
  Ge1      1.0000 0.50000  0.00000  0.00000  Biso   1.000  Ge
  Ge2      1.0000 0.00000  0.50000  0.00000  Biso   1.000  Ge
  Ge3      1.0000 0.31300  0.50000  0.37500  Biso   1.000  Ge
  Ge4      1.0000 0.68700  0.50000  0.62500  Biso   1.000  Ge
  U1       1.0000 0.85400  0.00000  0.29100  Biso   1.000  U 
  U2       1.0000 0.14600  0.00000  0.70900  Biso   1.000  U 
