data_image0
_cell_length_a       7.74573
_cell_length_b       10.5018
_cell_length_c       5.88937
_cell_angle_alpha    90
_cell_angle_beta     90
_cell_angle_gamma    90

_symmetry_space_group_name_H-M    "P 1"
_symmetry_int_tables_number       1

loop_
  _symmetry_equiv_pos_as_xyz
  'x, y, z'

loop_
  _atom_site_label
  _atom_site_occupancy
  _atom_site_fract_x
  _atom_site_fract_y
  _atom_site_fract_z
  _atom_site_thermal_displace_type
  _atom_site_B_iso_or_equiv
  _atom_site_type_symbol
  O1       1.0000 0.79800  0.15300  0.04250  Biso   1.000  O 
  O2       1.0000 0.29800  0.34700  0.04250  Biso   1.000  O 
  O3       1.0000 0.54400  0.07950  0.25000  Biso   1.000  O 
  O4       1.0000 0.04360  0.42100  0.25000  Biso   1.000  O 
  O5       1.0000 0.31000  0.54800  0.25000  Biso   1.000  O 
  O6       1.0000 0.81000  0.95200  0.25000  Biso   1.000  O 
  O7       1.0000 0.79800  0.15300  0.45700  Biso   1.000  O 
  O8       1.0000 0.29800  0.34700  0.45700  Biso   1.000  O 
  O9       1.0000 0.70200  0.65300  0.54300  Biso   1.000  O 
  O10      1.0000 0.20200  0.84700  0.54300  Biso   1.000  O 
  O11      1.0000 0.19000  0.04770  0.75000  Biso   1.000  O 
  O12      1.0000 0.69000  0.45200  0.75000  Biso   1.000  O 
  O13      1.0000 0.95600  0.57900  0.75000  Biso   1.000  O 
  O14      1.0000 0.45600  0.92100  0.75000  Biso   1.000  O 
  O15      1.0000 0.70200  0.65300  0.95700  Biso   1.000  O 
  O16      1.0000 0.20200  0.84700  0.95700  Biso   1.000  O 
  S1       1.0000 0.73500  0.08460  0.25000  Biso   1.000  S 
  S2       1.0000 0.23500  0.41500  0.25000  Biso   1.000  S 
  S3       1.0000 0.76500  0.58500  0.75000  Biso   1.000  S 
  S4       1.0000 0.26500  0.91500  0.75000  Biso   1.000  S 
  Tl1      1.0000 0.17100  0.08460  0.25000  Biso   1.000  Tl
  Tl2      1.0000 0.67100  0.41500  0.25000  Biso   1.000  Tl
  Tl3      1.0000 0.99300  0.69400  0.25000  Biso   1.000  Tl
  Tl4      1.0000 0.49300  0.80600  0.25000  Biso   1.000  Tl
  Tl5      1.0000 0.50700  0.19400  0.75000  Biso   1.000  Tl
  Tl6      1.0000 0.00685  0.30600  0.75000  Biso   1.000  Tl
  Tl7      1.0000 0.32900  0.58500  0.75000  Biso   1.000  Tl
  Tl8      1.0000 0.82900  0.91500  0.75000  Biso   1.000  Tl
