data_image0
_cell_length_a       7.11892
_cell_length_b       5.42254
_cell_length_c       5.42254
_cell_angle_alpha    90
_cell_angle_beta     112.387
_cell_angle_gamma    112.387

_symmetry_space_group_name_H-M    "P 1"
_symmetry_int_tables_number       1

loop_
  _symmetry_equiv_pos_as_xyz
  'x, y, z'

loop_
  _atom_site_label
  _atom_site_occupancy
  _atom_site_fract_x
  _atom_site_fract_y
  _atom_site_fract_z
  _atom_site_thermal_displace_type
  _atom_site_B_iso_or_equiv
  _atom_site_type_symbol
  Mo1      1.0000 0.25000  0.12500  0.37500  Biso   1.000  Mo
  Mo2      1.0000 0.75000  0.87500  0.62500  Biso   1.000  Mo
  O1       1.0000 0.08500  0.27900  0.15000  Biso   1.000  O 
  O2       1.0000 0.41500  0.06450  0.22100  Biso   1.000  O 
  O3       1.0000 0.58500  0.65000  0.30600  Biso   1.000  O 
  O4       1.0000 0.08500  0.80600  0.43500  Biso   1.000  O 
  O5       1.0000 0.91500  0.19400  0.56500  Biso   1.000  O 
  O6       1.0000 0.41500  0.35000  0.69400  Biso   1.000  O 
  O7       1.0000 0.58500  0.93500  0.77900  Biso   1.000  O 
  O8       1.0000 0.91500  0.72100  0.85000  Biso   1.000  O 
  Pb1      1.0000 0.75000  0.37500  0.12500  Biso   1.000  Pb
  Pb2      1.0000 0.25000  0.62500  0.87500  Biso   1.000  Pb
