data_image0
_cell_length_a       9.0355
_cell_length_b       3.80771
_cell_length_c       14.2615
_cell_angle_alpha    90
_cell_angle_beta     90
_cell_angle_gamma    90

_symmetry_space_group_name_H-M    "P 1"
_symmetry_int_tables_number       1

loop_
  _symmetry_equiv_pos_as_xyz
  'x, y, z'

loop_
  _atom_site_label
  _atom_site_occupancy
  _atom_site_fract_x
  _atom_site_fract_y
  _atom_site_fract_z
  _atom_site_thermal_displace_type
  _atom_site_B_iso_or_equiv
  _atom_site_type_symbol
  S1       1.0000 0.16000  0.25000  0.00330  Biso   1.000  S 
  S2       1.0000 0.48200  0.75000  0.10600  Biso   1.000  S 
  S3       1.0000 0.78700  0.25000  0.21200  Biso   1.000  S 
  S4       1.0000 0.28700  0.25000  0.28800  Biso   1.000  S 
  S5       1.0000 0.98200  0.75000  0.39400  Biso   1.000  S 
  S6       1.0000 0.66000  0.25000  0.49700  Biso   1.000  S 
  S7       1.0000 0.34000  0.75000  0.50300  Biso   1.000  S 
  S8       1.0000 0.01830  0.25000  0.60600  Biso   1.000  S 
  S9       1.0000 0.71300  0.75000  0.71200  Biso   1.000  S 
  S10      1.0000 0.21300  0.75000  0.78800  Biso   1.000  S 
  S11      1.0000 0.51800  0.25000  0.89400  Biso   1.000  S 
  S12      1.0000 0.84000  0.75000  0.99700  Biso   1.000  S 
  Sn1      1.0000 0.66500  0.25000  0.05170  Biso   1.000  Sn
  Sn2      1.0000 0.98200  0.75000  0.16800  Biso   1.000  Sn
  Sn3      1.0000 0.48200  0.75000  0.33200  Biso   1.000  Sn
  Sn4      1.0000 0.16500  0.25000  0.44800  Biso   1.000  Sn
  Sn5      1.0000 0.83500  0.75000  0.55200  Biso   1.000  Sn
  Sn6      1.0000 0.51800  0.25000  0.66800  Biso   1.000  Sn
  Sn7      1.0000 0.01790  0.25000  0.83200  Biso   1.000  Sn
  Sn8      1.0000 0.33500  0.75000  0.94800  Biso   1.000  Sn
