data_image0
_cell_length_a       12.2718
_cell_length_b       4.47507
_cell_length_c       4.70547
_cell_angle_alpha    90
_cell_angle_beta     90
_cell_angle_gamma    90

_symmetry_space_group_name_H-M    "P 1"
_symmetry_int_tables_number       1

loop_
  _symmetry_equiv_pos_as_xyz
  'x, y, z'

loop_
  _atom_site_label
  _atom_site_occupancy
  _atom_site_fract_x
  _atom_site_fract_y
  _atom_site_fract_z
  _atom_site_thermal_displace_type
  _atom_site_B_iso_or_equiv
  _atom_site_type_symbol
  Sn1      1.0000 0.11600  0.25000  0.09290  Biso   1.000  Sn
  Sn2      1.0000 0.61600  0.25000  0.40700  Biso   1.000  Sn
  Sn3      1.0000 0.38400  0.75000  0.59300  Biso   1.000  Sn
  Sn4      1.0000 0.88400  0.75000  0.90700  Biso   1.000  Sn
  Te1      1.0000 0.35800  0.25000  0.02110  Biso   1.000  Te
  Te2      1.0000 0.85800  0.25000  0.47900  Biso   1.000  Te
  Te3      1.0000 0.14200  0.75000  0.52100  Biso   1.000  Te
  Te4      1.0000 0.64200  0.75000  0.97900  Biso   1.000  Te
