data_image0
_cell_length_a       4.32106
_cell_length_b       4.32106
_cell_length_c       6.44815
_cell_angle_alpha    109.576
_cell_angle_beta     109.576
_cell_angle_gamma    90

_symmetry_space_group_name_H-M    "P 1"
_symmetry_int_tables_number       1

loop_
  _symmetry_equiv_pos_as_xyz
  'x, y, z'

loop_
  _atom_site_label
  _atom_site_occupancy
  _atom_site_fract_x
  _atom_site_fract_y
  _atom_site_fract_z
  _atom_site_thermal_displace_type
  _atom_site_B_iso_or_equiv
  _atom_site_type_symbol
  Al1      1.0000 0.61300  0.61300  0.22500  Biso   1.000  Al
  Al2      1.0000 0.75000  0.25000  0.50000  Biso   1.000  Al
  Al3      1.0000 0.25000  0.75000  0.50000  Biso   1.000  Al
  Al4      1.0000 0.38700  0.38700  0.77500  Biso   1.000  Al
  Ce1      1.0000 0.00000  0.00000  0.00000  Biso   1.000  Ce
