data_image0
_cell_length_a       11.566
_cell_length_b       12.2126
_cell_length_c       4.02536
_cell_angle_alpha    90
_cell_angle_beta     90
_cell_angle_gamma    90

_symmetry_space_group_name_H-M    "P 1"
_symmetry_int_tables_number       1

loop_
  _symmetry_equiv_pos_as_xyz
  'x, y, z'

loop_
  _atom_site_label
  _atom_site_occupancy
  _atom_site_fract_x
  _atom_site_fract_y
  _atom_site_fract_z
  _atom_site_thermal_displace_type
  _atom_site_B_iso_or_equiv
  _atom_site_type_symbol
  Sb1      1.0000 0.03720  0.14400  0.25000  Biso   1.000  Sb
  Sb2      1.0000 0.82900  0.47100  0.25000  Biso   1.000  Sb
  Sb3      1.0000 0.46300  0.64400  0.25000  Biso   1.000  Sb
  Sb4      1.0000 0.67100  0.97100  0.25000  Biso   1.000  Sb
  Sb5      1.0000 0.32900  0.02940  0.75000  Biso   1.000  Sb
  Sb6      1.0000 0.53700  0.35600  0.75000  Biso   1.000  Sb
  Sb7      1.0000 0.17100  0.52900  0.75000  Biso   1.000  Sb
  Sb8      1.0000 0.96300  0.85600  0.75000  Biso   1.000  Sb
  Se1      1.0000 0.44800  0.12800  0.25000  Biso   1.000  Se
  Se2      1.0000 0.69300  0.29000  0.25000  Biso   1.000  Se
  Se3      1.0000 0.36800  0.44800  0.25000  Biso   1.000  Se
  Se4      1.0000 0.05150  0.62800  0.25000  Biso   1.000  Se
  Se5      1.0000 0.80700  0.79000  0.25000  Biso   1.000  Se
  Se6      1.0000 0.13200  0.94800  0.25000  Biso   1.000  Se
  Se7      1.0000 0.86800  0.05180  0.75000  Biso   1.000  Se
  Se8      1.0000 0.19300  0.21000  0.75000  Biso   1.000  Se
  Se9      1.0000 0.94800  0.37200  0.75000  Biso   1.000  Se
  Se10     1.0000 0.63200  0.55200  0.75000  Biso   1.000  Se
  Se11     1.0000 0.30700  0.71000  0.75000  Biso   1.000  Se
  Se12     1.0000 0.55200  0.87200  0.75000  Biso   1.000  Se
