data_image0
_cell_length_a       6.74967
_cell_length_b       5.22443
_cell_length_c       5.22443
_cell_angle_alpha    90
_cell_angle_beta     112.769
_cell_angle_gamma    112.769

_symmetry_space_group_name_H-M    "P 1"
_symmetry_int_tables_number       1

loop_
  _symmetry_equiv_pos_as_xyz
  'x, y, z'

loop_
  _atom_site_label
  _atom_site_occupancy
  _atom_site_fract_x
  _atom_site_fract_y
  _atom_site_fract_z
  _atom_site_thermal_displace_type
  _atom_site_B_iso_or_equiv
  _atom_site_type_symbol
  Ca1      1.0000 0.75000  0.37500  0.12500  Biso   1.000  Ca
  Ca2      1.0000 0.25000  0.62500  0.87500  Biso   1.000  Ca
  O1       1.0000 0.07550  0.79300  0.13400  Biso   1.000  O 
  O2       1.0000 0.42500  0.36600  0.21700  Biso   1.000  O 
  O3       1.0000 0.57500  0.94100  0.29300  Biso   1.000  O 
  O4       1.0000 0.07550  0.28300  0.44100  Biso   1.000  O 
  O5       1.0000 0.92500  0.71700  0.55900  Biso   1.000  O 
  O6       1.0000 0.42500  0.05890  0.70700  Biso   1.000  O 
  O7       1.0000 0.57500  0.63400  0.78300  Biso   1.000  O 
  O8       1.0000 0.92500  0.20700  0.86600  Biso   1.000  O 
  W1       1.0000 0.25000  0.12500  0.37500  Biso   1.000  W 
  W2       1.0000 0.75000  0.87500  0.62500  Biso   1.000  W 
