data_image0
_cell_length_a       7.37385
_cell_length_b       7.37385
_cell_length_c       7.37385
_cell_angle_alpha    90
_cell_angle_beta     90
_cell_angle_gamma    90

_symmetry_space_group_name_H-M    "P 1"
_symmetry_int_tables_number       1

loop_
  _symmetry_equiv_pos_as_xyz
  'x, y, z'

loop_
  _atom_site_label
  _atom_site_occupancy
  _atom_site_fract_x
  _atom_site_fract_y
  _atom_site_fract_z
  _atom_site_thermal_displace_type
  _atom_site_B_iso_or_equiv
  _atom_site_type_symbol
  Ca1      1.0000 0.00000  0.00000  0.00000  Biso   1.000  Ca
  Ca2      1.0000 0.50000  0.50000  0.00000  Biso   1.000  Ca
  Ca3      1.0000 0.50000  0.00000  0.50000  Biso   1.000  Ca
  Ca4      1.0000 0.00000  0.50000  0.50000  Biso   1.000  Ca
  N1       1.0000 0.83900  0.33900  0.16100  Biso   1.000  N 
  N2       1.0000 0.66100  0.83900  0.16100  Biso   1.000  N 
  N3       1.0000 0.33900  0.33900  0.33900  Biso   1.000  N 
  N4       1.0000 0.16100  0.83900  0.33900  Biso   1.000  N 
  N5       1.0000 0.83900  0.16100  0.66100  Biso   1.000  N 
  N6       1.0000 0.66100  0.66100  0.66100  Biso   1.000  N 
  N7       1.0000 0.33900  0.16100  0.83900  Biso   1.000  N 
  N8       1.0000 0.16100  0.66100  0.83900  Biso   1.000  N 
  O1       1.0000 0.76000  0.27900  0.02170  Biso   1.000  O 
  O2       1.0000 0.74000  0.77900  0.02170  Biso   1.000  O 
  O3       1.0000 0.97800  0.26000  0.22100  Biso   1.000  O 
  O4       1.0000 0.52200  0.76000  0.22100  Biso   1.000  O 
  O5       1.0000 0.77900  0.47800  0.24000  Biso   1.000  O 
  O6       1.0000 0.72100  0.97800  0.24000  Biso   1.000  O 
  O7       1.0000 0.27900  0.47800  0.26000  Biso   1.000  O 
  O8       1.0000 0.22100  0.97800  0.26000  Biso   1.000  O 
  O9       1.0000 0.47800  0.26000  0.27900  Biso   1.000  O 
  O10      1.0000 0.02170  0.76000  0.27900  Biso   1.000  O 
  O11      1.0000 0.26000  0.27900  0.47800  Biso   1.000  O 
  O12      1.0000 0.24000  0.77900  0.47800  Biso   1.000  O 
  O13      1.0000 0.76000  0.22100  0.52200  Biso   1.000  O 
  O14      1.0000 0.74000  0.72100  0.52200  Biso   1.000  O 
  O15      1.0000 0.97800  0.24000  0.72100  Biso   1.000  O 
  O16      1.0000 0.52200  0.74000  0.72100  Biso   1.000  O 
  O17      1.0000 0.77900  0.02170  0.74000  Biso   1.000  O 
  O18      1.0000 0.72100  0.52200  0.74000  Biso   1.000  O 
  O19      1.0000 0.27900  0.02170  0.76000  Biso   1.000  O 
  O20      1.0000 0.22100  0.52200  0.76000  Biso   1.000  O 
  O21      1.0000 0.47800  0.24000  0.77900  Biso   1.000  O 
  O22      1.0000 0.02170  0.74000  0.77900  Biso   1.000  O 
  O23      1.0000 0.26000  0.22100  0.97800  Biso   1.000  O 
  O24      1.0000 0.24000  0.72100  0.97800  Biso   1.000  O 
