data_image0
_cell_length_a       3.87403
_cell_length_b       3.87403
_cell_length_c       6.88857
_cell_angle_alpha    106.3
_cell_angle_beta     106.3
_cell_angle_gamma    90.1064

_symmetry_space_group_name_H-M    "P 1"
_symmetry_int_tables_number       1

loop_
  _symmetry_equiv_pos_as_xyz
  'x, y, z'

loop_
  _atom_site_label
  _atom_site_occupancy
  _atom_site_fract_x
  _atom_site_fract_y
  _atom_site_fract_z
  _atom_site_thermal_displace_type
  _atom_site_B_iso_or_equiv
  _atom_site_type_symbol
  Co1      1.0000 0.00000  0.00000  0.00000  Biso   1.000  Co
  La1      1.0000 0.63800  0.63800  0.27600  Biso   1.000  La
  La2      1.0000 0.36200  0.36200  0.72400  Biso   1.000  La
  O1       1.0000 0.50000  0.00000  0.00000  Biso   1.000  O 
  O2       1.0000 0.00000  0.50000  0.00000  Biso   1.000  O 
  O3       1.0000 0.18100  0.18100  0.36200  Biso   1.000  O 
  O4       1.0000 0.81900  0.81900  0.63800  Biso   1.000  O 
