data_image0
_cell_length_a       3.84333
_cell_length_b       11.1381
_cell_length_c       11.1381
_cell_angle_alpha    90
_cell_angle_beta     90
_cell_angle_gamma    90

_symmetry_space_group_name_H-M    "P 1"
_symmetry_int_tables_number       1

loop_
  _symmetry_equiv_pos_as_xyz
  'x, y, z'

loop_
  _atom_site_label
  _atom_site_occupancy
  _atom_site_fract_x
  _atom_site_fract_y
  _atom_site_fract_z
  _atom_site_thermal_displace_type
  _atom_site_B_iso_or_equiv
  _atom_site_type_symbol
  Cl1      1.0000 0.00000  0.89700  0.10300  Biso   1.000  Cl
  Cl2      1.0000 0.00000  0.33000  0.10600  Biso   1.000  Cl
  Cl3      1.0000 0.50000  0.60600  0.17000  Biso   1.000  Cl
  Cl4      1.0000 0.00000  0.10600  0.33000  Biso   1.000  Cl
  Cl5      1.0000 0.50000  0.83000  0.39400  Biso   1.000  Cl
  Cl6      1.0000 0.50000  0.39700  0.39700  Biso   1.000  Cl
  Cl7      1.0000 0.50000  0.60300  0.60300  Biso   1.000  Cl
  Cl8      1.0000 0.50000  0.17000  0.60600  Biso   1.000  Cl
  Cl9      1.0000 0.00000  0.89400  0.67000  Biso   1.000  Cl
  Cl10     1.0000 0.50000  0.39400  0.83000  Biso   1.000  Cl
  Cl11     1.0000 0.00000  0.67000  0.89400  Biso   1.000  Cl
  Cl12     1.0000 0.00000  0.10300  0.89700  Biso   1.000  Cl
  O1       1.0000 0.50000  0.11300  0.11300  Biso   1.000  O 
  O2       1.0000 0.00000  0.61300  0.38700  Biso   1.000  O 
  O3       1.0000 0.00000  0.38700  0.61300  Biso   1.000  O 
  O4       1.0000 0.50000  0.88700  0.88700  Biso   1.000  O 
  Ta1      1.0000 0.00000  0.12600  0.12600  Biso   1.000  Ta
  Ta2      1.0000 0.50000  0.62600  0.37400  Biso   1.000  Ta
  Ta3      1.0000 0.50000  0.37400  0.62600  Biso   1.000  Ta
  Ta4      1.0000 0.00000  0.87400  0.87400  Biso   1.000  Ta
