data_image0
_cell_length_a       5.09747
_cell_length_b       5.09747
_cell_length_c       7.44939
_cell_angle_alpha    107.688
_cell_angle_beta     107.688
_cell_angle_gamma    95.9511

_symmetry_space_group_name_H-M    "P 1"
_symmetry_int_tables_number       1

loop_
  _symmetry_equiv_pos_as_xyz
  'x, y, z'

loop_
  _atom_site_label
  _atom_site_occupancy
  _atom_site_fract_x
  _atom_site_fract_y
  _atom_site_fract_z
  _atom_site_thermal_displace_type
  _atom_site_B_iso_or_equiv
  _atom_site_type_symbol
  H1       1.0000 0.05230  0.62800  0.20400  Biso   1.000  H 
  H2       1.0000 0.87200  0.44800  0.29600  Biso   1.000  H 
  H3       1.0000 0.12800  0.55200  0.70400  Biso   1.000  H 
  H4       1.0000 0.94800  0.37200  0.79600  Biso   1.000  H 
  O1       1.0000 0.30200  0.21900  0.09180  Biso   1.000  O 
  O2       1.0000 0.31800  0.78300  0.16100  Biso   1.000  O 
  O3       1.0000 0.88700  0.61300  0.25000  Biso   1.000  O 
  O4       1.0000 0.71700  0.18200  0.33900  Biso   1.000  O 
  O5       1.0000 0.28100  0.19800  0.40800  Biso   1.000  O 
  O6       1.0000 0.71900  0.80200  0.59200  Biso   1.000  O 
  O7       1.0000 0.28300  0.81800  0.66100  Biso   1.000  O 
  O8       1.0000 0.11300  0.38700  0.75000  Biso   1.000  O 
  O9       1.0000 0.68200  0.21700  0.83900  Biso   1.000  O 
  O10      1.0000 0.69800  0.78100  0.90800  Biso   1.000  O 
  S1       1.0000 0.40200  0.09830  0.25000  Biso   1.000  S 
  S2       1.0000 0.59800  0.90200  0.75000  Biso   1.000  S 
  Zn1      1.0000 0.50000  0.50000  0.00000  Biso   1.000  Zn
  Zn2      1.0000 0.00000  0.00000  0.50000  Biso   1.000  Zn
