data_image0
_cell_length_a       3.11033
_cell_length_b       3.11022
_cell_length_c       4.98433
_cell_angle_alpha    90
_cell_angle_beta     90
_cell_angle_gamma    120.001

_symmetry_space_group_name_H-M    "P 1"
_symmetry_int_tables_number       1

loop_
  _symmetry_equiv_pos_as_xyz
  'x, y, z'

loop_
  _atom_site_label
  _atom_site_occupancy
  _atom_site_fract_x
  _atom_site_fract_y
  _atom_site_fract_z
  _atom_site_thermal_displace_type
  _atom_site_B_iso_or_equiv
  _atom_site_type_symbol
  Al1      1.0000 0.33300  0.66700  0.00000  Biso   1.000  Al
  Al2      1.0000 0.66700  0.33300  0.50000  Biso   1.000  Al
  N1       1.0000 0.33300  0.66700  0.38000  Biso   1.000  N 
  N2       1.0000 0.66700  0.33300  0.88000  Biso   1.000  N 
