data_image0
_cell_length_a       6.5787
_cell_length_b       6.5787
_cell_length_c       9.30705
_cell_angle_alpha    112.488
_cell_angle_beta     112.488
_cell_angle_gamma    61.4124

_symmetry_space_group_name_H-M    "P 1"
_symmetry_int_tables_number       1

loop_
  _symmetry_equiv_pos_as_xyz
  'x, y, z'

loop_
  _atom_site_label
  _atom_site_occupancy
  _atom_site_fract_x
  _atom_site_fract_y
  _atom_site_fract_z
  _atom_site_thermal_displace_type
  _atom_site_B_iso_or_equiv
  _atom_site_type_symbol
  Fe1      1.0000 0.61900  0.40800  0.25600  Biso   1.000  Fe
  Fe2      1.0000 0.40800  0.61900  0.75600  Biso   1.000  Fe
  K1       1.0000 0.10100  0.74300  0.04170  Biso   1.000  K 
  K2       1.0000 0.59800  0.89300  0.14800  Biso   1.000  K 
  K3       1.0000 0.12900  0.44000  0.36900  Biso   1.000  K 
  K4       1.0000 0.26800  0.93800  0.47100  Biso   1.000  K 
  K5       1.0000 0.74300  0.10100  0.54200  Biso   1.000  K 
  K6       1.0000 0.89300  0.59800  0.64800  Biso   1.000  K 
  K7       1.0000 0.44000  0.12900  0.86900  Biso   1.000  K 
  K8       1.0000 0.93800  0.26800  0.97100  Biso   1.000  K 
  O1       1.0000 0.32800  0.36500  0.15400  Biso   1.000  O 
  O2       1.0000 0.90300  0.12700  0.24600  Biso   1.000  O 
  O3       1.0000 0.65400  0.70300  0.36400  Biso   1.000  O 
  O4       1.0000 0.36500  0.32800  0.65400  Biso   1.000  O 
  O5       1.0000 0.12700  0.90300  0.74600  Biso   1.000  O 
  O6       1.0000 0.70300  0.65400  0.86400  Biso   1.000  O 
