data_image0
_cell_length_a       3.83277
_cell_length_b       3.83277
_cell_length_c       10.3725
_cell_angle_alpha    100.647
_cell_angle_beta     100.647
_cell_angle_gamma    90

_symmetry_space_group_name_H-M    "P 1"
_symmetry_int_tables_number       1

loop_
  _symmetry_equiv_pos_as_xyz
  'x, y, z'

loop_
  _atom_site_label
  _atom_site_occupancy
  _atom_site_fract_x
  _atom_site_fract_y
  _atom_site_fract_z
  _atom_site_thermal_displace_type
  _atom_site_B_iso_or_equiv
  _atom_site_type_symbol
  Mn1      1.0000 0.09760  0.09760  0.19500  Biso   1.000  Mn
  Mn2      1.0000 0.90200  0.90200  0.80500  Biso   1.000  Mn
  O1       1.0000 0.00000  0.00000  0.00000  Biso   1.000  O 
  O2       1.0000 0.59600  0.09560  0.19100  Biso   1.000  O 
  O3       1.0000 0.09560  0.59600  0.19100  Biso   1.000  O 
  O4       1.0000 0.19300  0.19300  0.38600  Biso   1.000  O 
  O5       1.0000 0.80700  0.80700  0.61400  Biso   1.000  O 
  O6       1.0000 0.90400  0.40400  0.80900  Biso   1.000  O 
  O7       1.0000 0.40400  0.90400  0.80900  Biso   1.000  O 
  Sr1      1.0000 0.50000  0.50000  0.00000  Biso   1.000  Sr
  Sr2      1.0000 0.68300  0.68300  0.36600  Biso   1.000  Sr
  Sr3      1.0000 0.31700  0.31700  0.63400  Biso   1.000  Sr
