data_image0
_cell_length_a       4.98982
_cell_length_b       4.98982
_cell_length_c       4.6306
_cell_angle_alpha    97.6602
_cell_angle_beta     97.6602
_cell_angle_gamma    107.109

_symmetry_space_group_name_H-M    "P 1"
_symmetry_int_tables_number       1

loop_
  _symmetry_equiv_pos_as_xyz
  'x, y, z'

loop_
  _atom_site_label
  _atom_site_occupancy
  _atom_site_fract_x
  _atom_site_fract_y
  _atom_site_fract_z
  _atom_site_thermal_displace_type
  _atom_site_B_iso_or_equiv
  _atom_site_type_symbol
  Al1      1.0000 0.68700  0.31300  0.00000  Biso   1.000  Al
  Al2      1.0000 0.31300  0.68700  0.00000  Biso   1.000  Al
  O1       1.0000 0.40500  0.06100  0.20400  Biso   1.000  O 
  O2       1.0000 0.06100  0.40500  0.20400  Biso   1.000  O 
  O3       1.0000 0.58300  0.58300  0.26700  Biso   1.000  O 
  O4       1.0000 0.00000  0.00000  0.50000  Biso   1.000  O 
  O5       1.0000 0.41700  0.41700  0.73300  Biso   1.000  O 
  O6       1.0000 0.93900  0.59500  0.79600  Biso   1.000  O 
  O7       1.0000 0.59500  0.93900  0.79600  Biso   1.000  O 
  Si1      1.0000 0.23800  0.23800  0.39800  Biso   1.000  Si
  Si2      1.0000 0.76200  0.76200  0.60200  Biso   1.000  Si
