data_image0
_cell_length_a       8.4368
_cell_length_b       5.35972
_cell_length_c       6.93388
_cell_angle_alpha    90
_cell_angle_beta     90
_cell_angle_gamma    90

_symmetry_space_group_name_H-M    "P 1"
_symmetry_int_tables_number       1

loop_
  _symmetry_equiv_pos_as_xyz
  'x, y, z'

loop_
  _atom_site_label
  _atom_site_occupancy
  _atom_site_fract_x
  _atom_site_fract_y
  _atom_site_fract_z
  _atom_site_thermal_displace_type
  _atom_site_B_iso_or_equiv
  _atom_site_type_symbol
  O1       1.0000 0.30900  0.75000  0.03950  Biso   1.000  O 
  O2       1.0000 0.59700  0.75000  0.10000  Biso   1.000  O 
  O3       1.0000 0.91900  0.52300  0.18900  Biso   1.000  O 
  O4       1.0000 0.91900  0.97700  0.18900  Biso   1.000  O 
  O5       1.0000 0.41900  0.52300  0.31100  Biso   1.000  O 
  O6       1.0000 0.41900  0.97700  0.31100  Biso   1.000  O 
  O7       1.0000 0.09710  0.75000  0.40000  Biso   1.000  O 
  O8       1.0000 0.80900  0.75000  0.46100  Biso   1.000  O 
  O9       1.0000 0.19100  0.25000  0.53900  Biso   1.000  O 
  O10      1.0000 0.90300  0.25000  0.60000  Biso   1.000  O 
  O11      1.0000 0.58100  0.02310  0.68900  Biso   1.000  O 
  O12      1.0000 0.58100  0.47700  0.68900  Biso   1.000  O 
  O13      1.0000 0.08090  0.02310  0.81100  Biso   1.000  O 
  O14      1.0000 0.08090  0.47700  0.81100  Biso   1.000  O 
  O15      1.0000 0.40300  0.25000  0.90000  Biso   1.000  O 
  O16      1.0000 0.69100  0.25000  0.96100  Biso   1.000  O 
  Pb1      1.0000 0.18600  0.25000  0.16300  Biso   1.000  Pb
  Pb2      1.0000 0.68600  0.25000  0.33700  Biso   1.000  Pb
  Pb3      1.0000 0.31400  0.75000  0.66300  Biso   1.000  Pb
  Pb4      1.0000 0.81400  0.75000  0.83700  Biso   1.000  Pb
  S1       1.0000 0.43800  0.75000  0.18500  Biso   1.000  S 
  S2       1.0000 0.93800  0.75000  0.31500  Biso   1.000  S 
  S3       1.0000 0.06220  0.25000  0.68500  Biso   1.000  S 
  S4       1.0000 0.56200  0.25000  0.81500  Biso   1.000  S 
