data_image0
_cell_length_a       5.37892
_cell_length_b       6.51968
_cell_length_c       11.915
_cell_angle_alpha    107.032
_cell_angle_beta     96.3758
_cell_angle_gamma    77.9453

_symmetry_space_group_name_H-M    "P 1"
_symmetry_int_tables_number       1

loop_
  _symmetry_equiv_pos_as_xyz
  'x, y, z'

loop_
  _atom_site_label
  _atom_site_occupancy
  _atom_site_fract_x
  _atom_site_fract_y
  _atom_site_fract_z
  _atom_site_thermal_displace_type
  _atom_site_B_iso_or_equiv
  _atom_site_type_symbol
  Cr1      1.0000 0.84800  0.21400  0.06890  Biso   1.000  Cr
  Cr2      1.0000 0.70500  0.77800  0.11300  Biso   1.000  Cr
  Cr3      1.0000 0.34800  0.39300  0.25900  Biso   1.000  Cr
  Cr4      1.0000 0.26200  0.21500  0.47700  Biso   1.000  Cr
  Cr5      1.0000 0.73800  0.78500  0.52300  Biso   1.000  Cr
  Cr6      1.0000 0.65200  0.60700  0.74100  Biso   1.000  Cr
  Cr7      1.0000 0.29500  0.22200  0.88700  Biso   1.000  Cr
  Cr8      1.0000 0.15200  0.78600  0.93100  Biso   1.000  Cr
  O1       1.0000 0.41800  0.85200  0.05410  Biso   1.000  O 
  O2       1.0000 0.79700  0.51100  0.06170  Biso   1.000  O 
  O3       1.0000 0.91900  0.90000  0.06400  Biso   1.000  O 
  O4       1.0000 0.13200  0.25200  0.18500  Biso   1.000  O 
  O5       1.0000 0.62200  0.28400  0.19600  Biso   1.000  O 
  O6       1.0000 0.69500  0.86000  0.25200  Biso   1.000  O 
  O7       1.0000 0.26500  0.64100  0.25600  Biso   1.000  O 
  O8       1.0000 0.83100  0.61700  0.40100  Biso   1.000  O 
  O9       1.0000 0.38300  0.36700  0.40300  Biso   1.000  O 
  O10      1.0000 0.02400  0.12200  0.40400  Biso   1.000  O 
  O11      1.0000 0.50000  0.00000  0.50000  Biso   1.000  O 
  O12      1.0000 0.97600  0.87800  0.59600  Biso   1.000  O 
  O13      1.0000 0.61700  0.63300  0.59700  Biso   1.000  O 
  O14      1.0000 0.16900  0.38300  0.59900  Biso   1.000  O 
  O15      1.0000 0.73500  0.35900  0.74400  Biso   1.000  O 
  O16      1.0000 0.30500  0.14000  0.74800  Biso   1.000  O 
  O17      1.0000 0.37800  0.71600  0.80400  Biso   1.000  O 
  O18      1.0000 0.86800  0.74800  0.81500  Biso   1.000  O 
  O19      1.0000 0.08090  0.10000  0.93600  Biso   1.000  O 
  O20      1.0000 0.20300  0.48900  0.93800  Biso   1.000  O 
  O21      1.0000 0.58200  0.14800  0.94600  Biso   1.000  O 
