data_image0
_cell_length_a       6.99895
_cell_length_b       6.99895
_cell_length_c       7.1827
_cell_angle_alpha    119.157
_cell_angle_beta     60.8427
_cell_angle_gamma    120

_symmetry_space_group_name_H-M    "P 1"
_symmetry_int_tables_number       1

loop_
  _symmetry_equiv_pos_as_xyz
  'x, y, z'

loop_
  _atom_site_label
  _atom_site_occupancy
  _atom_site_fract_x
  _atom_site_fract_y
  _atom_site_fract_z
  _atom_site_thermal_displace_type
  _atom_site_B_iso_or_equiv
  _atom_site_type_symbol
  As1      1.0000 0.33200  0.66800  0.00501  Biso   1.000  As
  As2      1.0000 0.16800  0.83200  0.49500  Biso   1.000  As
  As3      1.0000 0.83200  0.16800  0.50500  Biso   1.000  As
  As4      1.0000 0.66800  0.33200  0.99500  Biso   1.000  As
  S1       1.0000 0.52000  0.75000  0.25000  Biso   1.000  S 
  S2       1.0000 0.98000  0.48000  0.25000  Biso   1.000  S 
  S3       1.0000 0.25000  0.02020  0.25000  Biso   1.000  S 
  S4       1.0000 0.75000  0.98000  0.75000  Biso   1.000  S 
  S5       1.0000 0.02020  0.52000  0.75000  Biso   1.000  S 
  S6       1.0000 0.48000  0.25000  0.75000  Biso   1.000  S 
