data_image0
_cell_length_a       6.66917
_cell_length_b       6.66917
_cell_length_c       6.66917
_cell_angle_alpha    109.471
_cell_angle_beta     109.471
_cell_angle_gamma    109.471

_symmetry_space_group_name_H-M    "P 1"
_symmetry_int_tables_number       1

loop_
  _symmetry_equiv_pos_as_xyz
  'x, y, z'

loop_
  _atom_site_label
  _atom_site_occupancy
  _atom_site_fract_x
  _atom_site_fract_y
  _atom_site_fract_z
  _atom_site_thermal_displace_type
  _atom_site_B_iso_or_equiv
  _atom_site_type_symbol
  Co1      1.0000 0.50000  0.00000  0.00000  Biso   1.000  Co
  Co2      1.0000 0.00000  0.50000  0.00000  Biso   1.000  Co
  Co3      1.0000 0.00000  0.00000  0.50000  Biso   1.000  Co
  Co4      1.0000 0.50000  0.50000  0.50000  Biso   1.000  Co
  P1       1.0000 0.34800  0.49400  0.14600  Biso   1.000  P 
  P2       1.0000 0.65200  0.79800  0.14600  Biso   1.000  P 
  P3       1.0000 0.85400  0.34800  0.20200  Biso   1.000  P 
  P4       1.0000 0.20200  0.85400  0.34800  Biso   1.000  P 
  P5       1.0000 0.49400  0.14600  0.34800  Biso   1.000  P 
  P6       1.0000 0.14600  0.34800  0.49400  Biso   1.000  P 
  P7       1.0000 0.85400  0.65200  0.50600  Biso   1.000  P 
  P8       1.0000 0.50600  0.85400  0.65200  Biso   1.000  P 
  P9       1.0000 0.79800  0.14600  0.65200  Biso   1.000  P 
  P10      1.0000 0.14600  0.65200  0.79800  Biso   1.000  P 
  P11      1.0000 0.34800  0.20200  0.85400  Biso   1.000  P 
  P12      1.0000 0.65200  0.50600  0.85400  Biso   1.000  P 
