data_image0
_cell_length_a       7.36178
_cell_length_b       7.36178
_cell_length_c       9.62232
_cell_angle_alpha    112.491
_cell_angle_beta     67.5091
_cell_angle_gamma    120

_symmetry_space_group_name_H-M    "P 1"
_symmetry_int_tables_number       1

loop_
  _symmetry_equiv_pos_as_xyz
  'x, y, z'

loop_
  _atom_site_label
  _atom_site_occupancy
  _atom_site_fract_x
  _atom_site_fract_y
  _atom_site_fract_z
  _atom_site_thermal_displace_type
  _atom_site_B_iso_or_equiv
  _atom_site_type_symbol
  Ba1      1.0000 0.00000  0.00000  0.00000  Biso   1.000  Ba
  Ba2      1.0000 0.21800  0.78200  0.34700  Biso   1.000  Ba
  Ba3      1.0000 0.78200  0.21800  0.65300  Biso   1.000  Ba
  Pb1      1.0000 0.50000  0.00000  0.00000  Biso   1.000  Pb
  Pb2      1.0000 0.00000  0.50000  0.00000  Biso   1.000  Pb
  Pb3      1.0000 0.50000  0.50000  0.00000  Biso   1.000  Pb
  Pb4      1.0000 0.26200  0.29600  0.33100  Biso   1.000  Pb
  Pb5      1.0000 0.70400  0.29600  0.33100  Biso   1.000  Pb
  Pb6      1.0000 0.70400  0.73800  0.33100  Biso   1.000  Pb
  Pb7      1.0000 0.29600  0.26200  0.66900  Biso   1.000  Pb
  Pb8      1.0000 0.29600  0.70400  0.66900  Biso   1.000  Pb
  Pb9      1.0000 0.73800  0.70400  0.66900  Biso   1.000  Pb
