data_image0
_cell_length_a       5.61325
_cell_length_b       4.67494
_cell_length_c       11.0774
_cell_angle_alpha    90
_cell_angle_beta     95.0495
_cell_angle_gamma    90

_symmetry_space_group_name_H-M    "P 1"
_symmetry_int_tables_number       1

loop_
  _symmetry_equiv_pos_as_xyz
  'x, y, z'

loop_
  _atom_site_label
  _atom_site_occupancy
  _atom_site_fract_x
  _atom_site_fract_y
  _atom_site_fract_z
  _atom_site_thermal_displace_type
  _atom_site_B_iso_or_equiv
  _atom_site_type_symbol
  H1       1.0000 0.28200  0.57800  0.04360  Biso   1.000  H 
  H2       1.0000 0.85100  0.00985  0.17200  Biso   1.000  H 
  H3       1.0000 0.48700  0.85100  0.17800  Biso   1.000  H 
  H4       1.0000 0.51300  0.35100  0.32200  Biso   1.000  H 
  H5       1.0000 0.14900  0.51000  0.32800  Biso   1.000  H 
  H6       1.0000 0.71800  0.07800  0.45600  Biso   1.000  H 
  H7       1.0000 0.28200  0.92200  0.54400  Biso   1.000  H 
  H8       1.0000 0.85100  0.49000  0.67200  Biso   1.000  H 
  H9       1.0000 0.48700  0.64900  0.67800  Biso   1.000  H 
  H10      1.0000 0.51300  0.14900  0.82200  Biso   1.000  H 
  H11      1.0000 0.14900  0.99000  0.82800  Biso   1.000  H 
  H12      1.0000 0.71800  0.42200  0.95600  Biso   1.000  H 
  O1       1.0000 0.28300  0.36700  0.02870  Biso   1.000  O 
  O2       1.0000 0.93200  0.15700  0.11800  Biso   1.000  O 
  O3       1.0000 0.32100  0.88400  0.12600  Biso   1.000  O 
  O4       1.0000 0.71200  0.81700  0.24000  Biso   1.000  O 
  O5       1.0000 0.28800  0.31700  0.26000  Biso   1.000  O 
  O6       1.0000 0.67900  0.38400  0.37400  Biso   1.000  O 
  O7       1.0000 0.06840  0.65700  0.38200  Biso   1.000  O 
  O8       1.0000 0.71700  0.86700  0.47100  Biso   1.000  O 
  O9       1.0000 0.28300  0.13300  0.52900  Biso   1.000  O 
  O10      1.0000 0.93200  0.34300  0.61800  Biso   1.000  O 
  O11      1.0000 0.32100  0.61600  0.62600  Biso   1.000  O 
  O12      1.0000 0.71200  0.68300  0.74000  Biso   1.000  O 
  O13      1.0000 0.28800  0.18300  0.76000  Biso   1.000  O 
  O14      1.0000 0.67900  0.11600  0.87400  Biso   1.000  O 
  O15      1.0000 0.06840  0.84300  0.88200  Biso   1.000  O 
  O16      1.0000 0.71700  0.63300  0.97100  Biso   1.000  O 
  P1       1.0000 0.20700  0.18500  0.13700  Biso   1.000  P 
  P2       1.0000 0.79300  0.68500  0.36300  Biso   1.000  P 
  P3       1.0000 0.20700  0.31500  0.63700  Biso   1.000  P 
  P4       1.0000 0.79300  0.81500  0.86300  Biso   1.000  P 
