data_image0
_cell_length_a       7.02252
_cell_length_b       7.02252
_cell_length_c       7.02252
_cell_angle_alpha    109.471
_cell_angle_beta     109.471
_cell_angle_gamma    109.471

_symmetry_space_group_name_H-M    "P 1"
_symmetry_int_tables_number       1

loop_
  _symmetry_equiv_pos_as_xyz
  'x, y, z'

loop_
  _atom_site_label
  _atom_site_occupancy
  _atom_site_fract_x
  _atom_site_fract_y
  _atom_site_fract_z
  _atom_site_thermal_displace_type
  _atom_site_B_iso_or_equiv
  _atom_site_type_symbol
  Be1      1.0000 0.47400  0.24100  0.00627  Biso   1.000  Be
  Be2      1.0000 0.03190  0.76600  0.02560  Biso   1.000  Be
  Be3      1.0000 0.26600  0.52600  0.03190  Biso   1.000  Be
  Be4      1.0000 0.26600  0.25900  0.23400  Biso   1.000  Be
  Be5      1.0000 0.46800  0.99400  0.23400  Biso   1.000  Be
  Be6      1.0000 0.76600  0.23400  0.24100  Biso   1.000  Be
  Be7      1.0000 0.99400  0.02560  0.25900  Biso   1.000  Be
  Be8      1.0000 0.75900  0.73400  0.26600  Biso   1.000  Be
  Be9      1.0000 0.02560  0.53200  0.26600  Biso   1.000  Be
  Be10     1.0000 0.49400  0.73400  0.46800  Biso   1.000  Be
  Be11     1.0000 0.74100  0.50600  0.47400  Biso   1.000  Be
  Be12     1.0000 0.23400  0.96800  0.49400  Biso   1.000  Be
  Be13     1.0000 0.76600  0.03190  0.50600  Biso   1.000  Be
  Be14     1.0000 0.25900  0.49400  0.52600  Biso   1.000  Be
  Be15     1.0000 0.50600  0.26600  0.53200  Biso   1.000  Be
  Be16     1.0000 0.97400  0.46800  0.73400  Biso   1.000  Be
  Be17     1.0000 0.24100  0.26600  0.73400  Biso   1.000  Be
  Be18     1.0000 0.00627  0.97400  0.74100  Biso   1.000  Be
  Be19     1.0000 0.23400  0.76600  0.75900  Biso   1.000  Be
  Be20     1.0000 0.53200  0.00627  0.76600  Biso   1.000  Be
  Be21     1.0000 0.73400  0.74100  0.76600  Biso   1.000  Be
  Be22     1.0000 0.73400  0.47400  0.96800  Biso   1.000  Be
  Be23     1.0000 0.96800  0.23400  0.97400  Biso   1.000  Be
  Be24     1.0000 0.52600  0.75900  0.99400  Biso   1.000  Be
  N1       1.0000 0.50000  0.00000  0.00000  Biso   1.000  N 
  N2       1.0000 0.00000  0.50000  0.00000  Biso   1.000  N 
  N3       1.0000 0.77100  0.75000  0.02070  Biso   1.000  N 
  N4       1.0000 0.75000  0.47900  0.22900  Biso   1.000  N 
  N5       1.0000 0.02070  0.27100  0.25000  Biso   1.000  N 
  N6       1.0000 0.52100  0.77100  0.25000  Biso   1.000  N 
  N7       1.0000 0.25000  0.02070  0.27100  Biso   1.000  N 
  N8       1.0000 0.72900  0.25000  0.47900  Biso   1.000  N 
  N9       1.0000 0.00000  0.00000  0.50000  Biso   1.000  N 
  N10      1.0000 0.50000  0.50000  0.50000  Biso   1.000  N 
  N11      1.0000 0.27100  0.75000  0.52100  Biso   1.000  N 
  N12      1.0000 0.75000  0.97900  0.72900  Biso   1.000  N 
  N13      1.0000 0.47900  0.22900  0.75000  Biso   1.000  N 
  N14      1.0000 0.97900  0.72900  0.75000  Biso   1.000  N 
  N15      1.0000 0.25000  0.52100  0.77100  Biso   1.000  N 
  N16      1.0000 0.22900  0.25000  0.97900  Biso   1.000  N 
