data_image0
_cell_length_a       4.5176
_cell_length_b       7.60909
_cell_length_c       11.0474
_cell_angle_alpha    91.8761
_cell_angle_beta     90
_cell_angle_gamma    107.269

_symmetry_space_group_name_H-M    "P 1"
_symmetry_int_tables_number       1

loop_
  _symmetry_equiv_pos_as_xyz
  'x, y, z'

loop_
  _atom_site_label
  _atom_site_occupancy
  _atom_site_fract_x
  _atom_site_fract_y
  _atom_site_fract_z
  _atom_site_thermal_displace_type
  _atom_site_B_iso_or_equiv
  _atom_site_type_symbol
  I1       1.0000 0.64500  0.29000  0.07800  Biso   1.000  I 
  I2       1.0000 0.91800  0.83600  0.26800  Biso   1.000  I 
  I3       1.0000 0.64200  0.28400  0.43800  Biso   1.000  I 
  I4       1.0000 0.35800  0.71600  0.56200  Biso   1.000  I 
  I5       1.0000 0.08200  0.16400  0.73200  Biso   1.000  I 
  I6       1.0000 0.35500  0.71000  0.92200  Biso   1.000  I 
  Sn1      1.0000 0.00000  0.00000  0.00000  Biso   1.000  Sn
  Sn2      1.0000 0.26700  0.53500  0.30900  Biso   1.000  Sn
  Sn3      1.0000 0.73300  0.46500  0.69100  Biso   1.000  Sn
