data_image0
_cell_length_a       7.03008
_cell_length_b       7.03008
_cell_length_c       7.03008
_cell_angle_alpha    45.8641
_cell_angle_beta     45.8641
_cell_angle_gamma    45.8641

_symmetry_space_group_name_H-M    "P 1"
_symmetry_int_tables_number       1

loop_
  _symmetry_equiv_pos_as_xyz
  'x, y, z'

loop_
  _atom_site_label
  _atom_site_occupancy
  _atom_site_fract_x
  _atom_site_fract_y
  _atom_site_fract_z
  _atom_site_thermal_displace_type
  _atom_site_B_iso_or_equiv
  _atom_site_type_symbol
  As1      1.0000 0.40500  0.40500  0.40500  Biso   1.000  As
  As2      1.0000 0.59500  0.59500  0.59500  Biso   1.000  As
  Ca1      1.0000 0.00000  0.00000  0.00000  Biso   1.000  Ca
  Ca2      1.0000 0.19900  0.19900  0.19900  Biso   1.000  Ca
  Ca3      1.0000 0.80100  0.80100  0.80100  Biso   1.000  Ca
  O1       1.0000 0.73700  0.73700  0.22400  Biso   1.000  O 
  O2       1.0000 0.77600  0.26300  0.26300  Biso   1.000  O 
  O3       1.0000 0.26300  0.77600  0.26300  Biso   1.000  O 
  O4       1.0000 0.31500  0.31500  0.31500  Biso   1.000  O 
  O5       1.0000 0.68500  0.68500  0.68500  Biso   1.000  O 
  O6       1.0000 0.73700  0.22400  0.73700  Biso   1.000  O 
  O7       1.0000 0.22400  0.73700  0.73700  Biso   1.000  O 
  O8       1.0000 0.26300  0.26300  0.77600  Biso   1.000  O 
