data_image0
_cell_length_a       8.76241
_cell_length_b       5.732
_cell_length_c       10.7744
_cell_angle_alpha    90
_cell_angle_beta     90
_cell_angle_gamma    90

_symmetry_space_group_name_H-M    "P 1"
_symmetry_int_tables_number       1

loop_
  _symmetry_equiv_pos_as_xyz
  'x, y, z'

loop_
  _atom_site_label
  _atom_site_occupancy
  _atom_site_fract_x
  _atom_site_fract_y
  _atom_site_fract_z
  _atom_site_thermal_displace_type
  _atom_site_B_iso_or_equiv
  _atom_site_type_symbol
  Ba1      1.0000 0.84400  0.25000  0.07960  Biso   1.000  Ba
  Ba2      1.0000 0.51900  0.75000  0.18000  Biso   1.000  Ba
  Ba3      1.0000 0.01930  0.75000  0.32000  Biso   1.000  Ba
  Ba4      1.0000 0.34400  0.25000  0.42000  Biso   1.000  Ba
  Ba5      1.0000 0.65600  0.75000  0.58000  Biso   1.000  Ba
  Ba6      1.0000 0.98100  0.25000  0.68000  Biso   1.000  Ba
  Ba7      1.0000 0.48100  0.25000  0.82000  Biso   1.000  Ba
  Ba8      1.0000 0.15600  0.75000  0.92000  Biso   1.000  Ba
  Pb1      1.0000 0.25200  0.25000  0.10400  Biso   1.000  Pb
  Pb2      1.0000 0.75200  0.25000  0.39600  Biso   1.000  Pb
  Pb3      1.0000 0.24800  0.75000  0.60400  Biso   1.000  Pb
  Pb4      1.0000 0.74800  0.75000  0.89600  Biso   1.000  Pb
