data_image0
_cell_length_a       7.06094
_cell_length_b       7.06094
_cell_length_c       7.55989
_cell_angle_alpha    117.84
_cell_angle_beta     62.1602
_cell_angle_gamma    120

_symmetry_space_group_name_H-M    "P 1"
_symmetry_int_tables_number       1

loop_
  _symmetry_equiv_pos_as_xyz
  'x, y, z'

loop_
  _atom_site_label
  _atom_site_occupancy
  _atom_site_fract_x
  _atom_site_fract_y
  _atom_site_fract_z
  _atom_site_thermal_displace_type
  _atom_site_B_iso_or_equiv
  _atom_site_type_symbol
  Al1      1.0000 0.65100  0.34900  0.04560  Biso   1.000  Al
  Al2      1.0000 0.84900  0.15100  0.45400  Biso   1.000  Al
  Al3      1.0000 0.15100  0.84900  0.54600  Biso   1.000  Al
  Al4      1.0000 0.34900  0.65100  0.95400  Biso   1.000  Al
  Te1      1.0000 0.55400  0.75000  0.25000  Biso   1.000  Te
  Te2      1.0000 0.94600  0.44600  0.25000  Biso   1.000  Te
  Te3      1.0000 0.25000  0.05410  0.25000  Biso   1.000  Te
  Te4      1.0000 0.75000  0.94600  0.75000  Biso   1.000  Te
  Te5      1.0000 0.05410  0.55400  0.75000  Biso   1.000  Te
  Te6      1.0000 0.44600  0.25000  0.75000  Biso   1.000  Te
