data_image0
_cell_length_a       5.22333
_cell_length_b       5.22333
_cell_length_c       5.22333
_cell_angle_alpha    60
_cell_angle_beta     60
_cell_angle_gamma    60

_symmetry_space_group_name_H-M    "P 1"
_symmetry_int_tables_number       1

loop_
  _symmetry_equiv_pos_as_xyz
  'x, y, z'

loop_
  _atom_site_label
  _atom_site_occupancy
  _atom_site_fract_x
  _atom_site_fract_y
  _atom_site_fract_z
  _atom_site_thermal_displace_type
  _atom_site_B_iso_or_equiv
  _atom_site_type_symbol
  Al1      1.0000 0.00000  0.00000  0.00000  Biso   1.000  Al
  B1       1.0000 0.50000  0.50000  0.16100  Biso   1.000  B 
  B2       1.0000 0.83900  0.50000  0.16100  Biso   1.000  B 
  B3       1.0000 0.50000  0.83900  0.16100  Biso   1.000  B 
  B4       1.0000 0.50000  0.16100  0.50000  Biso   1.000  B 
  B5       1.0000 0.83900  0.16100  0.50000  Biso   1.000  B 
  B6       1.0000 0.16100  0.50000  0.50000  Biso   1.000  B 
  B7       1.0000 0.83900  0.50000  0.50000  Biso   1.000  B 
  B8       1.0000 0.16100  0.83900  0.50000  Biso   1.000  B 
  B9       1.0000 0.50000  0.83900  0.50000  Biso   1.000  B 
  B10      1.0000 0.50000  0.16100  0.83900  Biso   1.000  B 
  B11      1.0000 0.16100  0.50000  0.83900  Biso   1.000  B 
  B12      1.0000 0.50000  0.50000  0.83900  Biso   1.000  B 
