data_image0
_cell_length_a       5.92831
_cell_length_b       5.92806
_cell_length_c       6.85971
_cell_angle_alpha    90
_cell_angle_beta     89.9977
_cell_angle_gamma    119.999

_symmetry_space_group_name_H-M    "P 1"
_symmetry_int_tables_number       1

loop_
  _symmetry_equiv_pos_as_xyz
  'x, y, z'

loop_
  _atom_site_label
  _atom_site_occupancy
  _atom_site_fract_x
  _atom_site_fract_y
  _atom_site_fract_z
  _atom_site_thermal_displace_type
  _atom_site_B_iso_or_equiv
  _atom_site_type_symbol
  K1       1.0000 0.00000  0.00000  0.00000  Biso   1.000  K 
  K2       1.0000 0.66700  0.33300  0.32500  Biso   1.000  K 
  K3       1.0000 1.00000  0.00000  0.50000  Biso   1.000  K 
  K4       1.0000 0.33300  0.66700  0.67500  Biso   1.000  K 
  O1       1.0000 0.19600  0.80400  0.26700  Biso   1.000  O 
  O2       1.0000 0.19600  0.39300  0.26700  Biso   1.000  O 
  O3       1.0000 0.60700  0.80400  0.26700  Biso   1.000  O 
  O4       1.0000 0.39300  0.19600  0.73300  Biso   1.000  O 
  O5       1.0000 0.80400  0.60700  0.73300  Biso   1.000  O 
  O6       1.0000 0.80400  0.19600  0.73300  Biso   1.000  O 
  S1       1.0000 0.33300  0.66700  0.17600  Biso   1.000  S 
  S2       1.0000 0.66700  0.33300  0.82400  Biso   1.000  S 
