data_image0
_cell_length_a       3.55748
_cell_length_b       3.92462
_cell_length_c       8.28973
_cell_angle_alpha    90
_cell_angle_beta     77.6096
_cell_angle_gamma    90

_symmetry_space_group_name_H-M    "P 1"
_symmetry_int_tables_number       1

loop_
  _symmetry_equiv_pos_as_xyz
  'x, y, z'

loop_
  _atom_site_label
  _atom_site_occupancy
  _atom_site_fract_x
  _atom_site_fract_y
  _atom_site_fract_z
  _atom_site_thermal_displace_type
  _atom_site_B_iso_or_equiv
  _atom_site_type_symbol
  Cu1      1.0000 0.93800  0.25000  0.12300  Biso   1.000  Cu
  Cu2      1.0000 0.06160  0.75000  0.87700  Biso   1.000  Cu
  O1       1.0000 0.94500  0.75000  0.11100  Biso   1.000  O 
  O2       1.0000 0.82100  0.25000  0.35800  Biso   1.000  O 
  O3       1.0000 0.17900  0.75000  0.64200  Biso   1.000  O 
  O4       1.0000 0.05530  0.25000  0.88900  Biso   1.000  O 
  Sr1      1.0000 0.33200  0.75000  0.33600  Biso   1.000  Sr
  Sr2      1.0000 0.66800  0.25000  0.66400  Biso   1.000  Sr
