data_image0
_cell_length_a       6.03084
_cell_length_b       6.03084
_cell_length_c       4.23366
_cell_angle_alpha    90
_cell_angle_beta     90
_cell_angle_gamma    90

_symmetry_space_group_name_H-M    "P 1"
_symmetry_int_tables_number       1

loop_
  _symmetry_equiv_pos_as_xyz
  'x, y, z'

loop_
  _atom_site_label
  _atom_site_occupancy
  _atom_site_fract_x
  _atom_site_fract_y
  _atom_site_fract_z
  _atom_site_thermal_displace_type
  _atom_site_B_iso_or_equiv
  _atom_site_type_symbol
  H1       1.0000 0.00000  0.14200  0.14200  Biso   1.000  H 
  H2       1.0000 0.35800  0.50000  0.14200  Biso   1.000  H 
  H3       1.0000 0.64200  0.50000  0.14200  Biso   1.000  H 
  H4       1.0000 0.00000  0.85800  0.14200  Biso   1.000  H 
  H5       1.0000 0.14200  0.00000  0.85800  Biso   1.000  H 
  H6       1.0000 0.85800  0.00000  0.85800  Biso   1.000  H 
  H7       1.0000 0.50000  0.35800  0.85800  Biso   1.000  H 
  H8       1.0000 0.50000  0.64200  0.85800  Biso   1.000  H 
  I1       1.0000 0.00000  0.50000  0.46900  Biso   1.000  I 
  I2       1.0000 0.50000  0.00000  0.53100  Biso   1.000  I 
  N1       1.0000 0.00000  0.00000  0.00000  Biso   1.000  N 
  N2       1.0000 0.50000  0.50000  0.00000  Biso   1.000  N 
