data_image0
_cell_length_a       5.43231
_cell_length_b       5.43231
_cell_length_c       6.03821
_cell_angle_alpha    89.9986
_cell_angle_beta     90.0014
_cell_angle_gamma    120

_symmetry_space_group_name_H-M    "P 1"
_symmetry_int_tables_number       1

loop_
  _symmetry_equiv_pos_as_xyz
  'x, y, z'

loop_
  _atom_site_label
  _atom_site_occupancy
  _atom_site_fract_x
  _atom_site_fract_y
  _atom_site_fract_z
  _atom_site_thermal_displace_type
  _atom_site_B_iso_or_equiv
  _atom_site_type_symbol
  Na1      1.0000 0.00000  0.00000  0.00000  Biso   1.000  Na
  Na2      1.0000 0.66700  0.33300  0.33800  Biso   1.000  Na
  Na3      1.0000 0.00000  0.00000  0.50000  Biso   1.000  Na
  Na4      1.0000 0.33300  0.66700  0.66200  Biso   1.000  Na
  O1       1.0000 0.62100  0.74000  0.26500  Biso   1.000  O 
  O2       1.0000 0.11900  0.37900  0.26500  Biso   1.000  O 
  O3       1.0000 0.26000  0.88100  0.26500  Biso   1.000  O 
  O4       1.0000 0.74000  0.11900  0.73500  Biso   1.000  O 
  O5       1.0000 0.88100  0.62100  0.73500  Biso   1.000  O 
  O6       1.0000 0.37900  0.26000  0.73500  Biso   1.000  O 
  S1       1.0000 0.33300  0.66700  0.16100  Biso   1.000  S 
  S2       1.0000 0.66700  0.33300  0.83900  Biso   1.000  S 
