data_image0
_cell_length_a       8.25981
_cell_length_b       5.1993
_cell_length_c       6.75702
_cell_angle_alpha    89.9988
_cell_angle_beta     89.9913
_cell_angle_gamma    89.5217

_symmetry_space_group_name_H-M    "P 1"
_symmetry_int_tables_number       1

loop_
  _symmetry_equiv_pos_as_xyz
  'x, y, z'

loop_
  _atom_site_label
  _atom_site_occupancy
  _atom_site_fract_x
  _atom_site_fract_y
  _atom_site_fract_z
  _atom_site_thermal_displace_type
  _atom_site_B_iso_or_equiv
  _atom_site_type_symbol
  O1       1.0000 0.91600  0.52600  0.18300  Biso   1.000  O 
  O2       1.0000 0.58400  0.47400  0.68300  Biso   1.000  O 
  O3       1.0000 0.08410  0.47400  0.81700  Biso   1.000  O 
  O4       1.0000 0.41600  0.52600  0.31700  Biso   1.000  O 
  O5       1.0000 0.92300  0.99200  0.19100  Biso   1.000  O 
  O6       1.0000 0.57700  0.00782  0.69100  Biso   1.000  O 
  O7       1.0000 0.07650  0.00788  0.80900  Biso   1.000  O 
  O8       1.0000 0.42300  0.99200  0.30900  Biso   1.000  O 
  O9       1.0000 0.79700  0.75800  0.45700  Biso   1.000  O 
  O10      1.0000 0.70300  0.24200  0.95700  Biso   1.000  O 
  O11      1.0000 0.20300  0.24200  0.54300  Biso   1.000  O 
  O12      1.0000 0.29700  0.75800  0.04320  Biso   1.000  O 
  O13      1.0000 0.09310  0.74100  0.41300  Biso   1.000  O 
  O14      1.0000 0.40700  0.25900  0.91300  Biso   1.000  O 
  O15      1.0000 0.90700  0.25900  0.58700  Biso   1.000  O 
  O16      1.0000 0.59300  0.74100  0.08730  Biso   1.000  O 
  S1       1.0000 0.93500  0.75500  0.31500  Biso   1.000  S 
  S2       1.0000 0.56500  0.24500  0.81500  Biso   1.000  S 
  S3       1.0000 0.06520  0.24500  0.68500  Biso   1.000  S 
  S4       1.0000 0.43500  0.75500  0.18500  Biso   1.000  S 
  Sn1      1.0000 0.30700  0.74000  0.67600  Biso   1.000  Sn
  Sn2      1.0000 0.19300  0.26000  0.17600  Biso   1.000  Sn
  Sn3      1.0000 0.69300  0.26000  0.32400  Biso   1.000  Sn
  Sn4      1.0000 0.80700  0.74000  0.82400  Biso   1.000  Sn
