data_image0
_cell_length_a       8.52985
_cell_length_b       8.53542
_cell_length_c       6.5736
_cell_angle_alpha    90
_cell_angle_beta     90
_cell_angle_gamma    90.0004

_symmetry_space_group_name_H-M    "P 1"
_symmetry_int_tables_number       1

loop_
  _symmetry_equiv_pos_as_xyz
  'x, y, z'

loop_
  _atom_site_label
  _atom_site_occupancy
  _atom_site_fract_x
  _atom_site_fract_y
  _atom_site_fract_z
  _atom_site_thermal_displace_type
  _atom_site_B_iso_or_equiv
  _atom_site_type_symbol
  O1       1.0000 0.14700  0.59100  0.50000  Biso   1.000  O 
  O2       1.0000 0.85300  0.40900  0.50000  Biso   1.000  O 
  O3       1.0000 0.64700  0.90900  0.50000  Biso   1.000  O 
  O4       1.0000 0.35300  0.09100  0.50000  Biso   1.000  O 
  O5       1.0000 0.09070  0.64700  0.00000  Biso   1.000  O 
  O6       1.0000 0.90900  0.35300  1.00000  Biso   1.000  O 
  O7       1.0000 0.59100  0.85300  1.00000  Biso   1.000  O 
  O8       1.0000 0.40900  0.14700  0.00000  Biso   1.000  O 
  O9       1.0000 0.67800  0.17700  0.25000  Biso   1.000  O 
  O10      1.0000 0.32200  0.82300  0.25000  Biso   1.000  O 
  O11      1.0000 0.17800  0.32300  0.75000  Biso   1.000  O 
  O12      1.0000 0.82200  0.67700  0.75000  Biso   1.000  O 
  O13      1.0000 0.32200  0.82300  0.75000  Biso   1.000  O 
  O14      1.0000 0.67800  0.17700  0.75000  Biso   1.000  O 
  O15      1.0000 0.82200  0.67700  0.25000  Biso   1.000  O 
  O16      1.0000 0.17800  0.32300  0.25000  Biso   1.000  O 
  Pb1      1.0000 0.00001  0.50000  0.25000  Biso   1.000  Pb
  Pb2      1.0000 0.50000  0.00000  0.75000  Biso   1.000  Pb
  Pb3      1.0000 0.00001  0.50000  0.75000  Biso   1.000  Pb
  Pb4      1.0000 0.50000  0.00000  0.25000  Biso   1.000  Pb
  Pb5      1.0000 0.15000  0.86300  0.50000  Biso   1.000  Pb
  Pb6      1.0000 0.85000  0.13700  0.50000  Biso   1.000  Pb
  Pb7      1.0000 0.65000  0.63800  0.50000  Biso   1.000  Pb
  Pb8      1.0000 0.35000  0.36200  0.50000  Biso   1.000  Pb
  Pb9      1.0000 0.13800  0.15100  1.00000  Biso   1.000  Pb
  Pb10     1.0000 0.86200  0.84900  0.00000  Biso   1.000  Pb
  Pb11     1.0000 0.63800  0.34900  0.00000  Biso   1.000  Pb
  Pb12     1.0000 0.36200  0.65100  0.00000  Biso   1.000  Pb
