data_image0
_cell_length_a       5.04537
_cell_length_b       5.05221
_cell_length_c       9.65852
_cell_angle_alpha    95.0572
_cell_angle_beta     100.168
_cell_angle_gamma    60.0448

_symmetry_space_group_name_H-M    "P 1"
_symmetry_int_tables_number       1

loop_
  _symmetry_equiv_pos_as_xyz
  'x, y, z'

loop_
  _atom_site_label
  _atom_site_occupancy
  _atom_site_fract_x
  _atom_site_fract_y
  _atom_site_fract_z
  _atom_site_thermal_displace_type
  _atom_site_B_iso_or_equiv
  _atom_site_type_symbol
  Li1      1.0000 0.31900  0.84100  0.00000  Biso   1.000  Li
  Li2      1.0000 0.00000  0.50000  0.00000  Biso   1.000  Li
  Li3      1.0000 0.68100  0.15900  0.00045  Biso   1.000  Li
  Li4      1.0000 0.08220  0.83600  0.25000  Biso   1.000  Li
  Li5      1.0000 0.15900  0.15900  0.50000  Biso   1.000  Li
  Li6      1.0000 0.50000  0.50000  0.50000  Biso   1.000  Li
  Li7      1.0000 0.84100  0.84100  0.50000  Biso   1.000  Li
  Li8      1.0000 0.91800  0.16400  0.75000  Biso   1.000  Li
  O1       1.0000 0.04330  0.18700  0.13300  Biso   1.000  O 
  O2       1.0000 0.69100  0.83400  0.13400  Biso   1.000  O 
  O3       1.0000 0.39700  0.48100  0.13400  Biso   1.000  O 
  O4       1.0000 0.12200  0.48100  0.36600  Biso   1.000  O 
  O5       1.0000 0.47500  0.83400  0.36600  Biso   1.000  O 
  O6       1.0000 0.77000  0.18700  0.36700  Biso   1.000  O 
  O7       1.0000 0.23000  0.81300  0.63300  Biso   1.000  O 
  O8       1.0000 0.52500  0.16600  0.63400  Biso   1.000  O 
  O9       1.0000 0.87800  0.51900  0.63400  Biso   1.000  O 
  O10      1.0000 0.60300  0.51900  0.86600  Biso   1.000  O 
  O11      1.0000 0.30900  0.16600  0.86600  Biso   1.000  O 
  O12      1.0000 0.95700  0.81300  0.86700  Biso   1.000  O 
  Ti1      1.0000 0.74800  0.50400  0.25000  Biso   1.000  Ti
  Ti2      1.0000 0.41600  0.16800  0.25000  Biso   1.000  Ti
  Ti3      1.0000 0.58400  0.83200  0.75000  Biso   1.000  Ti
  Ti4      1.0000 0.25200  0.49600  0.75000  Biso   1.000  Ti
