data_image0
_cell_length_a       6.45618
_cell_length_b       6.45618
_cell_length_c       9.05988
_cell_angle_alpha    101.225
_cell_angle_beta     78.7747
_cell_angle_gamma    94.7842

_symmetry_space_group_name_H-M    "P 1"
_symmetry_int_tables_number       1

loop_
  _symmetry_equiv_pos_as_xyz
  'x, y, z'

loop_
  _atom_site_label
  _atom_site_occupancy
  _atom_site_fract_x
  _atom_site_fract_y
  _atom_site_fract_z
  _atom_site_thermal_displace_type
  _atom_site_B_iso_or_equiv
  _atom_site_type_symbol
  B1       1.0000 0.03520  0.88000  0.06260  Biso   1.000  B 
  B2       1.0000 0.91200  0.56800  0.18300  Biso   1.000  B 
  B3       1.0000 0.78800  0.21200  0.24400  Biso   1.000  B 
  B4       1.0000 0.21200  0.78800  0.25600  Biso   1.000  B 
  B5       1.0000 0.56800  0.91200  0.31700  Biso   1.000  B 
  B6       1.0000 0.88000  0.03520  0.43700  Biso   1.000  B 
  B7       1.0000 0.12000  0.96500  0.56300  Biso   1.000  B 
  B8       1.0000 0.43200  0.08790  0.68300  Biso   1.000  B 
  B9       1.0000 0.78800  0.21200  0.74400  Biso   1.000  B 
  B10      1.0000 0.21200  0.78800  0.75600  Biso   1.000  B 
  B11      1.0000 0.08790  0.43200  0.81700  Biso   1.000  B 
  B12      1.0000 0.96500  0.12000  0.93700  Biso   1.000  B 
  K1       1.0000 0.41300  0.26600  0.06210  Biso   1.000  K 
  K2       1.0000 0.26600  0.41300  0.43800  Biso   1.000  K 
  K3       1.0000 0.73400  0.58700  0.56200  Biso   1.000  K 
  K4       1.0000 0.58700  0.73400  0.93800  Biso   1.000  K 
  O1       1.0000 0.88200  0.71000  0.09420  Biso   1.000  O 
  O2       1.0000 0.93400  0.09820  0.10400  Biso   1.000  O 
  O3       1.0000 0.22300  0.88100  0.12100  Biso   1.000  O 
  O4       1.0000 0.75500  0.41600  0.21000  Biso   1.000  O 
  O5       1.0000 0.09320  0.58100  0.24400  Biso   1.000  O 
  O6       1.0000 0.58100  0.09320  0.25600  Biso   1.000  O 
  O7       1.0000 0.41600  0.75500  0.29000  Biso   1.000  O 
  O8       1.0000 0.88100  0.22300  0.37900  Biso   1.000  O 
  O9       1.0000 0.09820  0.93400  0.39600  Biso   1.000  O 
  O10      1.0000 0.71000  0.88200  0.40600  Biso   1.000  O 
  O11      1.0000 0.29000  0.11800  0.59400  Biso   1.000  O 
  O12      1.0000 0.90200  0.06620  0.60400  Biso   1.000  O 
  O13      1.0000 0.11900  0.77700  0.62100  Biso   1.000  O 
  O14      1.0000 0.58400  0.24500  0.71000  Biso   1.000  O 
  O15      1.0000 0.41900  0.90700  0.74400  Biso   1.000  O 
  O16      1.0000 0.90700  0.41900  0.75600  Biso   1.000  O 
  O17      1.0000 0.24500  0.58400  0.79000  Biso   1.000  O 
  O18      1.0000 0.77700  0.11900  0.87900  Biso   1.000  O 
  O19      1.0000 0.06620  0.90200  0.89600  Biso   1.000  O 
  O20      1.0000 0.11800  0.29000  0.90600  Biso   1.000  O 
