data_image0
_cell_length_a       9.31053
_cell_length_b       9.72841
_cell_length_c       9.82473
_cell_angle_alpha    60.3238
_cell_angle_beta     90
_cell_angle_gamma    90

_symmetry_space_group_name_H-M    "P 1"
_symmetry_int_tables_number       1

loop_
  _symmetry_equiv_pos_as_xyz
  'x, y, z'

loop_
  _atom_site_label
  _atom_site_occupancy
  _atom_site_fract_x
  _atom_site_fract_y
  _atom_site_fract_z
  _atom_site_thermal_displace_type
  _atom_site_B_iso_or_equiv
  _atom_site_type_symbol
  Al1      1.0000 0.50000  0.25500  0.10300  Biso   1.000  Al
  Al2      1.0000 0.00000  0.64200  0.10300  Biso   1.000  Al
  Al3      1.0000 0.24900  0.00000  0.50000  Biso   1.000  Al
  Al4      1.0000 0.75100  0.00000  0.50000  Biso   1.000  Al
  Al5      1.0000 0.25100  0.50000  0.50000  Biso   1.000  Al
  Al6      1.0000 0.74900  0.50000  0.50000  Biso   1.000  Al
  Al7      1.0000 0.00000  0.35800  0.89700  Biso   1.000  Al
  Al8      1.0000 0.50000  0.74500  0.89700  Biso   1.000  Al
  Mg1      1.0000 0.25000  0.33800  0.32500  Biso   1.000  Mg
  Mg2      1.0000 0.75000  0.33800  0.32500  Biso   1.000  Mg
  Mg3      1.0000 0.25000  0.66200  0.67500  Biso   1.000  Mg
  Mg4      1.0000 0.75000  0.66200  0.67500  Biso   1.000  Mg
  O1       1.0000 0.00000  0.20300  0.08390  Biso   1.000  O 
  O2       1.0000 0.50000  0.71400  0.08390  Biso   1.000  O 
  O3       1.0000 0.34900  0.35300  0.12700  Biso   1.000  O 
  O4       1.0000 0.65100  0.35300  0.12700  Biso   1.000  O 
  O5       1.0000 0.15100  0.52100  0.12700  Biso   1.000  O 
  O6       1.0000 0.84900  0.52100  0.12700  Biso   1.000  O 
  O7       1.0000 0.50000  0.06070  0.24500  Biso   1.000  O 
  O8       1.0000 0.00000  0.69400  0.24500  Biso   1.000  O 
  O9       1.0000 0.50000  0.75300  0.33200  Biso   1.000  O 
  O10      1.0000 0.00000  0.91500  0.33200  Biso   1.000  O 
  O11      1.0000 0.14300  0.14000  0.34500  Biso   1.000  O 
  O12      1.0000 0.85700  0.14000  0.34500  Biso   1.000  O 
  O13      1.0000 0.35700  0.51500  0.34500  Biso   1.000  O 
  O14      1.0000 0.64300  0.51500  0.34500  Biso   1.000  O 
  O15      1.0000 0.14200  0.65000  0.49700  Biso   1.000  O 
  O16      1.0000 0.85800  0.65000  0.49700  Biso   1.000  O 
  O17      1.0000 0.35800  0.85300  0.49700  Biso   1.000  O 
  O18      1.0000 0.64200  0.85300  0.49700  Biso   1.000  O 
  O19      1.0000 0.35800  0.14700  0.50300  Biso   1.000  O 
  O20      1.0000 0.64200  0.14700  0.50300  Biso   1.000  O 
  O21      1.0000 0.14200  0.35000  0.50300  Biso   1.000  O 
  O22      1.0000 0.85800  0.35000  0.50300  Biso   1.000  O 
  O23      1.0000 0.35700  0.48500  0.65500  Biso   1.000  O 
  O24      1.0000 0.64300  0.48500  0.65500  Biso   1.000  O 
  O25      1.0000 0.14300  0.86000  0.65500  Biso   1.000  O 
  O26      1.0000 0.85700  0.86000  0.65500  Biso   1.000  O 
  O27      1.0000 0.00000  0.08480  0.66800  Biso   1.000  O 
  O28      1.0000 0.50000  0.24700  0.66800  Biso   1.000  O 
  O29      1.0000 0.00000  0.30600  0.75500  Biso   1.000  O 
  O30      1.0000 0.50000  0.93900  0.75500  Biso   1.000  O 
  O31      1.0000 0.15100  0.47900  0.87300  Biso   1.000  O 
  O32      1.0000 0.84900  0.47900  0.87300  Biso   1.000  O 
  O33      1.0000 0.34900  0.64700  0.87300  Biso   1.000  O 
  O34      1.0000 0.65100  0.64700  0.87300  Biso   1.000  O 
  O35      1.0000 0.50000  0.28600  0.91600  Biso   1.000  O 
  O36      1.0000 0.00000  0.79700  0.91600  Biso   1.000  O 
  Si1      1.0000 0.25000  0.50000  0.00000  Biso   1.000  Si
  Si2      1.0000 0.75000  0.50000  0.00000  Biso   1.000  Si
  Si3      1.0000 0.00000  0.10400  0.26900  Biso   1.000  Si
  Si4      1.0000 0.50000  0.62800  0.26900  Biso   1.000  Si
  Si5      1.0000 0.00000  0.73000  0.38700  Biso   1.000  Si
  Si6      1.0000 0.50000  0.88300  0.38700  Biso   1.000  Si
  Si7      1.0000 0.50000  0.11700  0.61300  Biso   1.000  Si
  Si8      1.0000 0.00000  0.27000  0.61300  Biso   1.000  Si
  Si9      1.0000 0.50000  0.37200  0.73100  Biso   1.000  Si
  Si10     1.0000 0.00000  0.89600  0.73100  Biso   1.000  Si
