data_image0
_cell_length_a       9.37357
_cell_length_b       10.9254
_cell_length_c       7.89333
_cell_angle_alpha    90
_cell_angle_beta     98.9124
_cell_angle_gamma    90

_symmetry_space_group_name_H-M    "P 1"
_symmetry_int_tables_number       1

loop_
  _symmetry_equiv_pos_as_xyz
  'x, y, z'

loop_
  _atom_site_label
  _atom_site_occupancy
  _atom_site_fract_x
  _atom_site_fract_y
  _atom_site_fract_z
  _atom_site_thermal_displace_type
  _atom_site_B_iso_or_equiv
  _atom_site_type_symbol
  Cl1      1.0000 0.14600  0.61400  0.09490  Biso   1.000  Cl
  Cl2      1.0000 0.64600  0.88600  0.09490  Biso   1.000  Cl
  Cl3      1.0000 0.40700  0.40200  0.12000  Biso   1.000  Cl
  Cl4      1.0000 0.90700  0.09770  0.12000  Biso   1.000  Cl
  Cl5      1.0000 0.13100  0.86400  0.41200  Biso   1.000  Cl
  Cl6      1.0000 0.63100  0.63600  0.41200  Biso   1.000  Cl
  Cl7      1.0000 0.36900  0.36400  0.58800  Biso   1.000  Cl
  Cl8      1.0000 0.86900  0.13600  0.58800  Biso   1.000  Cl
  Cl9      1.0000 0.09280  0.90200  0.88000  Biso   1.000  Cl
  Cl10     1.0000 0.59300  0.59800  0.88000  Biso   1.000  Cl
  Cl11     1.0000 0.35400  0.11400  0.90500  Biso   1.000  Cl
  Cl12     1.0000 0.85400  0.38600  0.90500  Biso   1.000  Cl
  O1       1.0000 0.24100  0.15300  0.27300  Biso   1.000  O 
  O2       1.0000 0.74100  0.34700  0.27300  Biso   1.000  O 
  O3       1.0000 0.06620  0.34000  0.28400  Biso   1.000  O 
  O4       1.0000 0.56600  0.16000  0.28400  Biso   1.000  O 
  O5       1.0000 0.09550  0.57100  0.46900  Biso   1.000  O 
  O6       1.0000 0.59500  0.92900  0.46900  Biso   1.000  O 
  O7       1.0000 0.40500  0.07100  0.53100  Biso   1.000  O 
  O8       1.0000 0.90500  0.42900  0.53100  Biso   1.000  O 
  O9       1.0000 0.43400  0.84000  0.71600  Biso   1.000  O 
  O10      1.0000 0.93400  0.66000  0.71600  Biso   1.000  O 
  O11      1.0000 0.25900  0.65300  0.72700  Biso   1.000  O 
  O12      1.0000 0.75900  0.84700  0.72700  Biso   1.000  O 
  Sb1      1.0000 0.10200  0.23900  0.08480  Biso   1.000  Sb
  Sb2      1.0000 0.60200  0.26100  0.08480  Biso   1.000  Sb
  Sb3      1.0000 0.93100  0.48100  0.28300  Biso   1.000  Sb
  Sb4      1.0000 0.43100  0.01910  0.28300  Biso   1.000  Sb
  Sb5      1.0000 0.27300  0.67800  0.47400  Biso   1.000  Sb
  Sb6      1.0000 0.77300  0.82200  0.47400  Biso   1.000  Sb
  Sb7      1.0000 0.72700  0.32200  0.52600  Biso   1.000  Sb
  Sb8      1.0000 0.22700  0.17800  0.52600  Biso   1.000  Sb
  Sb9      1.0000 0.56900  0.98100  0.71700  Biso   1.000  Sb
  Sb10     1.0000 0.06870  0.51900  0.71700  Biso   1.000  Sb
  Sb11     1.0000 0.39800  0.73900  0.91500  Biso   1.000  Sb
  Sb12     1.0000 0.89800  0.76100  0.91500  Biso   1.000  Sb
