data_image0
_cell_length_a       8.09093
_cell_length_b       8.09093
_cell_length_c       11.4091
_cell_angle_alpha    90
_cell_angle_beta     90
_cell_angle_gamma    90

_symmetry_space_group_name_H-M    "P 1"
_symmetry_int_tables_number       1

loop_
  _symmetry_equiv_pos_as_xyz
  'x, y, z'

loop_
  _atom_site_label
  _atom_site_occupancy
  _atom_site_fract_x
  _atom_site_fract_y
  _atom_site_fract_z
  _atom_site_thermal_displace_type
  _atom_site_B_iso_or_equiv
  _atom_site_type_symbol
  P1       1.0000 0.75400  0.24600  0.00000  Biso   1.000  P 
  P2       1.0000 0.24600  0.24600  0.00000  Biso   1.000  P 
  P3       1.0000 0.24600  0.75400  0.00000  Biso   1.000  P 
  P4       1.0000 0.75400  0.75400  0.00000  Biso   1.000  P 
  P5       1.0000 0.50000  0.00000  0.24600  Biso   1.000  P 
  P6       1.0000 0.50000  0.50000  0.24600  Biso   1.000  P 
  P7       1.0000 0.00000  0.00000  0.25400  Biso   1.000  P 
  P8       1.0000 0.00000  0.50000  0.25400  Biso   1.000  P 
  P9       1.0000 0.74600  0.74600  0.50000  Biso   1.000  P 
  P10      1.0000 0.74600  0.25400  0.50000  Biso   1.000  P 
  P11      1.0000 0.25400  0.74600  0.50000  Biso   1.000  P 
  P12      1.0000 0.25400  0.25400  0.50000  Biso   1.000  P 
  P13      1.0000 0.50000  0.00000  0.74600  Biso   1.000  P 
  P14      1.0000 0.00000  0.00000  0.74600  Biso   1.000  P 
  P15      1.0000 0.50000  0.50000  0.75400  Biso   1.000  P 
  P16      1.0000 0.00000  0.50000  0.75400  Biso   1.000  P 
  Zn1      1.0000 0.50000  0.28300  0.10600  Biso   1.000  Zn
  Zn2      1.0000 0.50000  0.71700  0.10600  Biso   1.000  Zn
  Zn3      1.0000 0.00000  0.28300  0.11600  Biso   1.000  Zn
  Zn4      1.0000 0.00000  0.71700  0.11600  Biso   1.000  Zn
  Zn5      1.0000 0.24700  0.00000  0.14700  Biso   1.000  Zn
  Zn6      1.0000 0.75300  1.00000  0.14700  Biso   1.000  Zn
  Zn7      1.0000 0.25300  0.50000  0.35300  Biso   1.000  Zn
  Zn8      1.0000 0.74700  0.50000  0.35300  Biso   1.000  Zn
  Zn9      1.0000 0.50000  0.21700  0.38400  Biso   1.000  Zn
  Zn10     1.0000 0.50000  0.78300  0.38400  Biso   1.000  Zn
  Zn11     1.0000 0.00000  0.21700  0.39400  Biso   1.000  Zn
  Zn12     1.0000 0.00000  0.78300  0.39400  Biso   1.000  Zn
  Zn13     1.0000 0.21700  0.00000  0.60600  Biso   1.000  Zn
  Zn14     1.0000 0.78300  1.00000  0.60600  Biso   1.000  Zn
  Zn15     1.0000 0.21700  0.50000  0.61600  Biso   1.000  Zn
  Zn16     1.0000 0.78300  0.50000  0.61600  Biso   1.000  Zn
  Zn17     1.0000 0.50000  0.25300  0.64700  Biso   1.000  Zn
  Zn18     1.0000 0.50000  0.74700  0.64700  Biso   1.000  Zn
  Zn19     1.0000 0.00000  0.24700  0.85300  Biso   1.000  Zn
  Zn20     1.0000 0.00000  0.75300  0.85300  Biso   1.000  Zn
  Zn21     1.0000 0.28300  0.00000  0.88400  Biso   1.000  Zn
  Zn22     1.0000 0.71700  1.00000  0.88400  Biso   1.000  Zn
  Zn23     1.0000 0.28300  0.50000  0.89400  Biso   1.000  Zn
  Zn24     1.0000 0.71700  0.50000  0.89400  Biso   1.000  Zn
