data_image0
_cell_length_a       6.64679
_cell_length_b       4.662
_cell_length_c       11.2031
_cell_angle_alpha    90
_cell_angle_beta     101.419
_cell_angle_gamma    90

_symmetry_space_group_name_H-M    "P 1"
_symmetry_int_tables_number       1

loop_
  _symmetry_equiv_pos_as_xyz
  'x, y, z'

loop_
  _atom_site_label
  _atom_site_occupancy
  _atom_site_fract_x
  _atom_site_fract_y
  _atom_site_fract_z
  _atom_site_thermal_displace_type
  _atom_site_B_iso_or_equiv
  _atom_site_type_symbol
  Pt1      1.0000 0.00000  0.00000  0.00000  Biso   1.000  Pt
  Pt2      1.0000 0.33200  0.33300  0.00204  Biso   1.000  Pt
  Pt3      1.0000 0.22300  0.66400  0.17400  Biso   1.000  Pt
  Pt4      1.0000 0.77700  0.16400  0.32600  Biso   1.000  Pt
  Pt5      1.0000 0.66800  0.83300  0.49800  Biso   1.000  Pt
  Pt6      1.0000 0.00000  0.50000  0.50000  Biso   1.000  Pt
  Pt7      1.0000 0.33200  0.16700  0.50200  Biso   1.000  Pt
  Pt8      1.0000 0.22300  0.83600  0.67400  Biso   1.000  Pt
  Pt9      1.0000 0.77700  0.33600  0.82600  Biso   1.000  Pt
  Pt10     1.0000 0.66800  0.66700  0.99800  Biso   1.000  Pt
  Se1      1.0000 0.91100  0.36500  0.13800  Biso   1.000  Se
  Se2      1.0000 0.51400  0.96300  0.14500  Biso   1.000  Se
  Se3      1.0000 0.48600  0.46300  0.35500  Biso   1.000  Se
  Se4      1.0000 0.08870  0.86500  0.36200  Biso   1.000  Se
  Se5      1.0000 0.91100  0.13500  0.63800  Biso   1.000  Se
  Se6      1.0000 0.51400  0.53700  0.64500  Biso   1.000  Se
  Se7      1.0000 0.48600  0.03700  0.85500  Biso   1.000  Se
  Se8      1.0000 0.08870  0.63500  0.86200  Biso   1.000  Se
