data_image0
_cell_length_a       4.64006
_cell_length_b       4.64006
_cell_length_c       6.51745
_cell_angle_alpha    90
_cell_angle_beta     90
_cell_angle_gamma    90

_symmetry_space_group_name_H-M    "P 1"
_symmetry_int_tables_number       1

loop_
  _symmetry_equiv_pos_as_xyz
  'x, y, z'

loop_
  _atom_site_label
  _atom_site_occupancy
  _atom_site_fract_x
  _atom_site_fract_y
  _atom_site_fract_z
  _atom_site_thermal_displace_type
  _atom_site_B_iso_or_equiv
  _atom_site_type_symbol
  B1       1.0000 0.25000  0.75000  0.25000  Biso   1.000  B 
  B2       1.0000 0.75000  0.25000  0.75000  Biso   1.000  B 
  H1       1.0000 0.25000  0.53400  0.14100  Biso   1.000  H 
  H2       1.0000 0.25000  0.96600  0.14100  Biso   1.000  H 
  H3       1.0000 0.03390  0.75000  0.35900  Biso   1.000  H 
  H4       1.0000 0.46600  0.75000  0.35900  Biso   1.000  H 
  H5       1.0000 0.53400  0.25000  0.64100  Biso   1.000  H 
  H6       1.0000 0.96600  0.25000  0.64100  Biso   1.000  H 
  H7       1.0000 0.75000  0.03390  0.85900  Biso   1.000  H 
  H8       1.0000 0.75000  0.46600  0.85900  Biso   1.000  H 
  K1       1.0000 0.75000  0.25000  0.25000  Biso   1.000  K 
  K2       1.0000 0.25000  0.75000  0.75000  Biso   1.000  K 
