data_image0
_cell_length_a       12.5259
_cell_length_b       5.01447
_cell_length_c       8.47272
_cell_angle_alpha    90
_cell_angle_beta     90
_cell_angle_gamma    90

_symmetry_space_group_name_H-M    "P 1"
_symmetry_int_tables_number       1

loop_
  _symmetry_equiv_pos_as_xyz
  'x, y, z'

loop_
  _atom_site_label
  _atom_site_occupancy
  _atom_site_fract_x
  _atom_site_fract_y
  _atom_site_fract_z
  _atom_site_thermal_displace_type
  _atom_site_B_iso_or_equiv
  _atom_site_type_symbol
  I1       1.0000 0.62300  0.75000  0.12000  Biso   1.000  I 
  I2       1.0000 0.89200  0.25000  0.12300  Biso   1.000  I 
  I3       1.0000 0.39200  0.25000  0.37700  Biso   1.000  I 
  I4       1.0000 0.12300  0.75000  0.38000  Biso   1.000  I 
  I5       1.0000 0.87700  0.25000  0.62000  Biso   1.000  I 
  I6       1.0000 0.60800  0.75000  0.62300  Biso   1.000  I 
  I7       1.0000 0.10800  0.75000  0.87700  Biso   1.000  I 
  I8       1.0000 0.37700  0.25000  0.88000  Biso   1.000  I 
  Sr1      1.0000 0.17000  0.25000  0.13200  Biso   1.000  Sr
  Sr2      1.0000 0.67000  0.25000  0.36800  Biso   1.000  Sr
  Sr3      1.0000 0.33000  0.75000  0.63200  Biso   1.000  Sr
  Sr4      1.0000 0.83000  0.75000  0.86800  Biso   1.000  Sr
