data_image0
_cell_length_a       7.39283
_cell_length_b       7.39283
_cell_length_c       9.14981
_cell_angle_alpha    90
_cell_angle_beta     90
_cell_angle_gamma    90

_symmetry_space_group_name_H-M    "P 1"
_symmetry_int_tables_number       1

loop_
  _symmetry_equiv_pos_as_xyz
  'x, y, z'

loop_
  _atom_site_label
  _atom_site_occupancy
  _atom_site_fract_x
  _atom_site_fract_y
  _atom_site_fract_z
  _atom_site_thermal_displace_type
  _atom_site_B_iso_or_equiv
  _atom_site_type_symbol
  H1       1.0000 0.93200  0.59500  0.18400  Biso   1.000  H 
  H2       1.0000 0.06820  0.40500  0.18400  Biso   1.000  H 
  H3       1.0000 0.40500  0.93200  0.68400  Biso   1.000  H 
  H4       1.0000 0.59500  0.06820  0.68400  Biso   1.000  H 
  H5       1.0000 0.09210  0.93400  0.31000  Biso   1.000  H 
  H6       1.0000 0.90800  0.06630  0.31000  Biso   1.000  H 
  H7       1.0000 0.06630  0.09210  0.81000  Biso   1.000  H 
  H8       1.0000 0.93400  0.90800  0.81000  Biso   1.000  H 
  H9       1.0000 0.06990  0.09370  0.18200  Biso   1.000  H 
  H10      1.0000 0.93000  0.90600  0.18200  Biso   1.000  H 
  H11      1.0000 0.90600  0.06990  0.68200  Biso   1.000  H 
  H12      1.0000 0.09370  0.93000  0.68200  Biso   1.000  H 
  H13      1.0000 0.40400  0.56700  0.18800  Biso   1.000  H 
  H14      1.0000 0.59600  0.43300  0.18800  Biso   1.000  H 
  H15      1.0000 0.43300  0.40400  0.68800  Biso   1.000  H 
  H16      1.0000 0.56700  0.59600  0.68800  Biso   1.000  H 
  H17      1.0000 0.90600  0.43700  0.31200  Biso   1.000  H 
  H18      1.0000 0.09410  0.56300  0.31200  Biso   1.000  H 
  H19      1.0000 0.56300  0.90600  0.81200  Biso   1.000  H 
  H20      1.0000 0.43700  0.09410  0.81200  Biso   1.000  H 
  H21      1.0000 0.43500  0.09240  0.31300  Biso   1.000  H 
  H22      1.0000 0.56500  0.90800  0.31300  Biso   1.000  H 
  H23      1.0000 0.90800  0.43500  0.81300  Biso   1.000  H 
  H24      1.0000 0.09240  0.56500  0.81300  Biso   1.000  H 
  H25      1.0000 0.59400  0.06970  0.18500  Biso   1.000  H 
  H26      1.0000 0.40600  0.93000  0.18500  Biso   1.000  H 
  H27      1.0000 0.93000  0.59400  0.68500  Biso   1.000  H 
  H28      1.0000 0.06970  0.40600  0.68500  Biso   1.000  H 
  H29      1.0000 0.43700  0.40600  0.31600  Biso   1.000  H 
  H30      1.0000 0.56300  0.59400  0.31600  Biso   1.000  H 
  H31      1.0000 0.59400  0.43700  0.81600  Biso   1.000  H 
  H32      1.0000 0.40600  0.56300  0.81600  Biso   1.000  H 
  N1       1.0000 0.00000  0.00000  0.24400  Biso   1.000  N 
  N2       1.0000 0.00000  0.00000  0.74400  Biso   1.000  N 
  N3       1.0000 0.50000  0.00000  0.24600  Biso   1.000  N 
  N4       1.0000 0.00000  0.50000  0.74600  Biso   1.000  N 
  N5       1.0000 0.50000  0.50000  0.25000  Biso   1.000  N 
  N6       1.0000 0.50000  0.50000  0.75000  Biso   1.000  N 
  N7       1.0000 0.00000  0.50000  0.24600  Biso   1.000  N 
  N8       1.0000 0.50000  0.00000  0.74600  Biso   1.000  N 
  N9       1.0000 0.24900  0.24400  0.51800  Biso   1.000  N 
  N10      1.0000 0.75100  0.75600  0.51800  Biso   1.000  N 
  N11      1.0000 0.75600  0.24900  0.01800  Biso   1.000  N 
  N12      1.0000 0.24400  0.75100  0.01800  Biso   1.000  N 
  N13      1.0000 0.25900  0.24900  0.01840  Biso   1.000  N 
  N14      1.0000 0.74100  0.75100  0.01840  Biso   1.000  N 
  N15      1.0000 0.75100  0.25900  0.51800  Biso   1.000  N 
  N16      1.0000 0.24900  0.74100  0.51800  Biso   1.000  N 
  O1       1.0000 0.41000  0.24500  0.95700  Biso   1.000  O 
  O2       1.0000 0.59000  0.75500  0.95700  Biso   1.000  O 
  O3       1.0000 0.75500  0.41000  0.45700  Biso   1.000  O 
  O4       1.0000 0.24500  0.59000  0.45700  Biso   1.000  O 
  O5       1.0000 0.25100  0.25300  0.15700  Biso   1.000  O 
  O6       1.0000 0.74900  0.74700  0.15700  Biso   1.000  O 
  O7       1.0000 0.74700  0.25100  0.65700  Biso   1.000  O 
  O8       1.0000 0.25300  0.74900  0.65700  Biso   1.000  O 
  O9       1.0000 0.11300  0.24800  0.94800  Biso   1.000  O 
  O10      1.0000 0.88700  0.75200  0.94800  Biso   1.000  O 
  O11      1.0000 0.75200  0.11300  0.44800  Biso   1.000  O 
  O12      1.0000 0.24800  0.88700  0.44800  Biso   1.000  O 
  O13      1.0000 0.24700  0.25200  0.65700  Biso   1.000  O 
  O14      1.0000 0.75300  0.74800  0.65700  Biso   1.000  O 
  O15      1.0000 0.74800  0.24700  0.15700  Biso   1.000  O 
  O16      1.0000 0.25200  0.75300  0.15700  Biso   1.000  O 
  O17      1.0000 0.40300  0.24300  0.45600  Biso   1.000  O 
  O18      1.0000 0.59700  0.75700  0.45600  Biso   1.000  O 
  O19      1.0000 0.75700  0.40300  0.95600  Biso   1.000  O 
  O20      1.0000 0.24300  0.59700  0.95600  Biso   1.000  O 
  O21      1.0000 0.10500  0.24000  0.44800  Biso   1.000  O 
  O22      1.0000 0.89500  0.76000  0.44800  Biso   1.000  O 
  O23      1.0000 0.76000  0.10500  0.94800  Biso   1.000  O 
  O24      1.0000 0.24000  0.89500  0.94800  Biso   1.000  O 
