data_image0
_cell_length_a       5.94646
_cell_length_b       5.92692
_cell_length_c       16.7504
_cell_angle_alpha    90
_cell_angle_beta     90
_cell_angle_gamma    90

_symmetry_space_group_name_H-M    "P 1"
_symmetry_int_tables_number       1

loop_
  _symmetry_equiv_pos_as_xyz
  'x, y, z'

loop_
  _atom_site_label
  _atom_site_occupancy
  _atom_site_fract_x
  _atom_site_fract_y
  _atom_site_fract_z
  _atom_site_thermal_displace_type
  _atom_site_B_iso_or_equiv
  _atom_site_type_symbol
  Fe1      1.0000 0.25000  0.75600  0.37600  Biso   1.000  Fe
  Fe2      1.0000 0.75000  0.24400  0.62400  Biso   1.000  Fe
  Fe3      1.0000 0.75000  0.75600  0.12400  Biso   1.000  Fe
  Fe4      1.0000 0.25000  0.24400  0.87600  Biso   1.000  Fe
  Fe5      1.0000 0.00000  0.01010  0.25000  Biso   1.000  Fe
  Fe6      1.0000 0.50000  0.99000  0.75000  Biso   1.000  Fe
  Fe7      1.0000 0.00000  0.99000  0.75000  Biso   1.000  Fe
  Fe8      1.0000 0.50000  0.01010  0.25000  Biso   1.000  Fe
  Fe9      1.0000 0.25000  0.26400  0.37900  Biso   1.000  Fe
  Fe10     1.0000 0.75000  0.73600  0.62100  Biso   1.000  Fe
  Fe11     1.0000 0.75000  0.26400  0.12100  Biso   1.000  Fe
  Fe12     1.0000 0.25000  0.73600  0.87900  Biso   1.000  Fe
  Fe13     1.0000 0.25000  0.50600  0.18900  Biso   1.000  Fe
  Fe14     1.0000 0.75000  0.49400  0.81100  Biso   1.000  Fe
  Fe15     1.0000 0.75000  0.50600  0.31100  Biso   1.000  Fe
  Fe16     1.0000 0.25000  0.49400  0.68900  Biso   1.000  Fe
  Fe17     1.0000 0.00000  0.50000  0.00000  Biso   1.000  Fe
  Fe18     1.0000 0.50000  0.50000  0.00000  Biso   1.000  Fe
  Fe19     1.0000 0.00000  0.50000  0.50000  Biso   1.000  Fe
  Fe20     1.0000 0.50000  0.50000  0.50000  Biso   1.000  Fe
  Fe21     1.0000 0.25000  0.00648  0.06420  Biso   1.000  Fe
  Fe22     1.0000 0.75000  0.99400  0.93600  Biso   1.000  Fe
  Fe23     1.0000 0.75000  0.00648  0.43600  Biso   1.000  Fe
  Fe24     1.0000 0.25000  0.99400  0.56400  Biso   1.000  Fe
  O1       1.0000 0.99000  0.50100  0.12600  Biso   1.000  O 
  O2       1.0000 0.49000  0.49900  0.87400  Biso   1.000  O 
  O3       1.0000 0.00973  0.50100  0.37400  Biso   1.000  O 
  O4       1.0000 0.51000  0.49900  0.62600  Biso   1.000  O 
  O5       1.0000 0.00973  0.49900  0.87400  Biso   1.000  O 
  O6       1.0000 0.51000  0.50100  0.12600  Biso   1.000  O 
  O7       1.0000 0.99000  0.49900  0.62600  Biso   1.000  O 
  O8       1.0000 0.49000  0.50100  0.37400  Biso   1.000  O 
  O9       1.0000 0.99000  0.01550  0.13100  Biso   1.000  O 
  O10      1.0000 0.49000  0.98500  0.86900  Biso   1.000  O 
  O11      1.0000 0.01010  0.01550  0.36900  Biso   1.000  O 
  O12      1.0000 0.51000  0.98500  0.63100  Biso   1.000  O 
  O13      1.0000 0.01010  0.98500  0.86900  Biso   1.000  O 
  O14      1.0000 0.51000  0.01550  0.13100  Biso   1.000  O 
  O15      1.0000 0.99000  0.98500  0.63100  Biso   1.000  O 
  O16      1.0000 0.49000  0.01550  0.36900  Biso   1.000  O 
  O17      1.0000 0.25000  0.77800  0.25100  Biso   1.000  O 
  O18      1.0000 0.75000  0.22200  0.74900  Biso   1.000  O 
  O19      1.0000 0.75000  0.77800  0.24900  Biso   1.000  O 
  O20      1.0000 0.25000  0.22200  0.75100  Biso   1.000  O 
  O21      1.0000 0.25000  0.24100  0.25500  Biso   1.000  O 
  O22      1.0000 0.75000  0.75900  0.74500  Biso   1.000  O 
  O23      1.0000 0.75000  0.24100  0.24500  Biso   1.000  O 
  O24      1.0000 0.25000  0.75900  0.75500  Biso   1.000  O 
  O25      1.0000 0.25000  0.75000  0.99800  Biso   1.000  O 
  O26      1.0000 0.75000  0.25000  0.00241  Biso   1.000  O 
  O27      1.0000 0.75000  0.75000  0.50200  Biso   1.000  O 
  O28      1.0000 0.25000  0.25000  0.49800  Biso   1.000  O 
  O29      1.0000 0.25000  0.26100  0.99700  Biso   1.000  O 
  O30      1.0000 0.75000  0.73900  0.00256  Biso   1.000  O 
  O31      1.0000 0.75000  0.26100  0.50300  Biso   1.000  O 
  O32      1.0000 0.25000  0.73900  0.49700  Biso   1.000  O 
