data_image0
_cell_length_a       5.5855
_cell_length_b       5.58552
_cell_length_c       7.41574
_cell_angle_alpha    90.0015
_cell_angle_beta     112.124
_cell_angle_gamma    59.9998

_symmetry_space_group_name_H-M    "P 1"
_symmetry_int_tables_number       1

loop_
  _symmetry_equiv_pos_as_xyz
  'x, y, z'

loop_
  _atom_site_label
  _atom_site_occupancy
  _atom_site_fract_x
  _atom_site_fract_y
  _atom_site_fract_z
  _atom_site_thermal_displace_type
  _atom_site_B_iso_or_equiv
  _atom_site_type_symbol
  As1      1.0000 0.81200  0.59400  0.21900  Biso   1.000  As
  As2      1.0000 0.18800  0.40600  0.78100  Biso   1.000  As
  O1       1.0000 0.35700  0.32100  0.03610  Biso   1.000  O 
  O2       1.0000 0.53500  0.73300  0.30400  Biso   1.000  O 
  O3       1.0000 0.03670  0.73300  0.30400  Biso   1.000  O 
  O4       1.0000 0.03670  0.23100  0.30400  Biso   1.000  O 
  O5       1.0000 0.96300  0.76900  0.69600  Biso   1.000  O 
  O6       1.0000 0.96300  0.26700  0.69600  Biso   1.000  O 
  O7       1.0000 0.46500  0.26700  0.69600  Biso   1.000  O 
  O8       1.0000 0.64300  0.67900  0.96400  Biso   1.000  O 
  Sr1      1.0000 0.00000  0.00000  0.00000  Biso   1.000  Sr
  Sr2      1.0000 0.59400  0.20300  0.39100  Biso   1.000  Sr
  Sr3      1.0000 0.40600  0.79700  0.60900  Biso   1.000  Sr
