data_image0
_cell_length_a       6.93022
_cell_length_b       6.93029
_cell_length_c       7.10094
_cell_angle_alpha    90
_cell_angle_beta     90
_cell_angle_gamma    120.032

_symmetry_space_group_name_H-M    "P 1"
_symmetry_int_tables_number       1

loop_
  _symmetry_equiv_pos_as_xyz
  'x, y, z'

loop_
  _atom_site_label
  _atom_site_occupancy
  _atom_site_fract_x
  _atom_site_fract_y
  _atom_site_fract_z
  _atom_site_thermal_displace_type
  _atom_site_B_iso_or_equiv
  _atom_site_type_symbol
  Ce1      1.0000 0.33300  0.33300  0.75000  Biso   1.000  Ce
  Ce2      1.0000 0.33300  0.00000  0.25000  Biso   1.000  Ce
  Ce3      1.0000 0.66700  0.00011  0.75000  Biso   1.000  Ce
  Ce4      1.0000 0.00000  0.33300  0.25000  Biso   1.000  Ce
  Ce5      1.0000 0.66700  0.66700  0.25000  Biso   1.000  Ce
  Ce6      1.0000 0.00009  0.66700  0.75000  Biso   1.000  Ce
  F1       1.0000 0.00000  0.00000  0.25000  Biso   1.000  F 
  F2       1.0000 0.00001  0.00002  0.75000  Biso   1.000  F 
  F3       1.0000 0.33300  0.66700  0.25000  Biso   1.000  F 
  F4       1.0000 0.66700  0.33300  0.75000  Biso   1.000  F 
  F5       1.0000 0.66700  0.33300  0.25000  Biso   1.000  F 
  F6       1.0000 0.33300  0.66700  0.75000  Biso   1.000  F 
  F7       1.0000 0.33300  0.00007  0.58200  Biso   1.000  F 
  F8       1.0000 0.66700  0.00000  0.08220  Biso   1.000  F 
  F9       1.0000 0.00007  0.33300  0.58200  Biso   1.000  F 
  F10      1.0000 0.66700  0.66700  0.58200  Biso   1.000  F 
  F11      1.0000 0.33300  0.33300  0.08230  Biso   1.000  F 
  F12      1.0000 0.00000  0.66700  0.08230  Biso   1.000  F 
  F13      1.0000 0.33300  0.00007  0.91800  Biso   1.000  F 
  F14      1.0000 0.66700  0.66700  0.91800  Biso   1.000  F 
  F15      1.0000 0.00007  0.33300  0.91800  Biso   1.000  F 
  F16      1.0000 0.00000  0.66700  0.41800  Biso   1.000  F 
  F17      1.0000 0.33300  0.33300  0.41800  Biso   1.000  F 
  F18      1.0000 0.66700  0.00000  0.41800  Biso   1.000  F 
