data_image0
_cell_length_a       4.01451
_cell_length_b       4.01451
_cell_length_c       4.44944
_cell_angle_alpha    116.816
_cell_angle_beta     116.816
_cell_angle_gamma    90

_symmetry_space_group_name_H-M    "P 1"
_symmetry_int_tables_number       1

loop_
  _symmetry_equiv_pos_as_xyz
  'x, y, z'

loop_
  _atom_site_label
  _atom_site_occupancy
  _atom_site_fract_x
  _atom_site_fract_y
  _atom_site_fract_z
  _atom_site_thermal_displace_type
  _atom_site_B_iso_or_equiv
  _atom_site_type_symbol
  O1       1.0000 0.59800  0.59800  0.19700  Biso   1.000  O 
  O2       1.0000 0.40200  0.40200  0.80300  Biso   1.000  O 
  Rb1      1.0000 0.00000  0.00000  0.00000  Biso   1.000  Rb
