data_image0
_cell_length_a       6.96357
_cell_length_b       6.96357
_cell_length_c       6.96357
_cell_angle_alpha    114.382
_cell_angle_beta     107.073
_cell_angle_gamma    107.073

_symmetry_space_group_name_H-M    "P 1"
_symmetry_int_tables_number       1

loop_
  _symmetry_equiv_pos_as_xyz
  'x, y, z'

loop_
  _atom_site_label
  _atom_site_occupancy
  _atom_site_fract_x
  _atom_site_fract_y
  _atom_site_fract_z
  _atom_site_thermal_displace_type
  _atom_site_B_iso_or_equiv
  _atom_site_type_symbol
  Cl1      1.0000 0.56200  0.25600  0.19500  Biso   1.000  Cl
  Cl2      1.0000 0.93800  0.63300  0.19500  Biso   1.000  Cl
  Cl3      1.0000 0.06170  0.19500  0.25600  Biso   1.000  Cl
  Cl4      1.0000 0.56200  0.80500  0.36700  Biso   1.000  Cl
  Cl5      1.0000 0.43800  0.19500  0.63300  Biso   1.000  Cl
  Cl6      1.0000 0.93800  0.80500  0.74400  Biso   1.000  Cl
  Cl7      1.0000 0.06170  0.36700  0.80500  Biso   1.000  Cl
  Cl8      1.0000 0.43800  0.74400  0.80500  Biso   1.000  Cl
  Np1      1.0000 0.25000  0.87500  0.12500  Biso   1.000  Np
  Np2      1.0000 0.75000  0.12500  0.87500  Biso   1.000  Np
