data_image0
_cell_length_a       6.79336
_cell_length_b       6.84549
_cell_length_c       7.42663
_cell_angle_alpha    116.565
_cell_angle_beta     90
_cell_angle_gamma    119.748

_symmetry_space_group_name_H-M    "P 1"
_symmetry_int_tables_number       1

loop_
  _symmetry_equiv_pos_as_xyz
  'x, y, z'

loop_
  _atom_site_label
  _atom_site_occupancy
  _atom_site_fract_x
  _atom_site_fract_y
  _atom_site_fract_z
  _atom_site_thermal_displace_type
  _atom_site_B_iso_or_equiv
  _atom_site_type_symbol
  Al1      1.0000 0.36000  0.91800  0.37300  Biso   1.000  Al
  Al2      1.0000 0.73100  0.59800  0.38400  Biso   1.000  Al
  Al3      1.0000 0.55800  0.91800  0.87300  Biso   1.000  Al
  Al4      1.0000 0.86700  0.59800  0.88400  Biso   1.000  Al
  Se1      1.0000 0.24500  0.65400  0.98800  Biso   1.000  Se
  Se2      1.0000 0.56900  0.32300  0.99700  Biso   1.000  Se
  Se3      1.0000 0.92100  0.00693  0.00837  Biso   1.000  Se
  Se4      1.0000 0.40800  0.65400  0.48800  Biso   1.000  Se
  Se5      1.0000 0.75400  0.32300  0.49700  Biso   1.000  Se
  Se6      1.0000 0.08560  0.00694  0.50800  Biso   1.000  Se
