data_image0
_cell_length_a       3.66906
_cell_length_b       8.77424
_cell_length_c       5.56111
_cell_angle_alpha    90
_cell_angle_beta     90
_cell_angle_gamma    77.9315

_symmetry_space_group_name_H-M    "P 1"
_symmetry_int_tables_number       1

loop_
  _symmetry_equiv_pos_as_xyz
  'x, y, z'

loop_
  _atom_site_label
  _atom_site_occupancy
  _atom_site_fract_x
  _atom_site_fract_y
  _atom_site_fract_z
  _atom_site_thermal_displace_type
  _atom_site_B_iso_or_equiv
  _atom_site_type_symbol
  Ca1      1.0000 0.33800  0.32500  0.00000  Biso   1.000  Ca
  Ca2      1.0000 0.77400  0.45300  0.50000  Biso   1.000  Ca
  Mg1      1.0000 0.00555  0.98900  0.00000  Biso   1.000  Mg
  Mg2      1.0000 0.65800  0.68300  0.00000  Biso   1.000  Mg
  Mg3      1.0000 0.45300  0.09450  0.50000  Biso   1.000  Mg
  Mg4      1.0000 0.10600  0.78900  0.50000  Biso   1.000  Mg
