data_image0
_cell_length_a       7.853
_cell_length_b       10.5913
_cell_length_c       7.10331
_cell_angle_alpha    89.2574
_cell_angle_beta     118.045
_cell_angle_gamma    109.008

_symmetry_space_group_name_H-M    "P 1"
_symmetry_int_tables_number       1

loop_
  _symmetry_equiv_pos_as_xyz
  'x, y, z'

loop_
  _atom_site_label
  _atom_site_occupancy
  _atom_site_fract_x
  _atom_site_fract_y
  _atom_site_fract_z
  _atom_site_thermal_displace_type
  _atom_site_B_iso_or_equiv
  _atom_site_type_symbol
  Br1      1.0000 0.81600  0.04310  0.06100  Biso   1.000  Br
  Br2      1.0000 0.57100  0.33300  0.13000  Biso   1.000  Br
  Br3      1.0000 0.18300  0.42800  0.25600  Biso   1.000  Br
  Br4      1.0000 0.98900  0.74800  0.29400  Biso   1.000  Br
  Br5      1.0000 0.61200  0.84500  0.49900  Biso   1.000  Br
  Br6      1.0000 0.38800  0.15500  0.50100  Biso   1.000  Br
  Br7      1.0000 0.01090  0.25200  0.70600  Biso   1.000  Br
  Br8      1.0000 0.81700  0.57200  0.74400  Biso   1.000  Br
  Br9      1.0000 0.42900  0.66700  0.87000  Biso   1.000  Br
  Br10     1.0000 0.18400  0.95700  0.93900  Biso   1.000  Br
  U1       1.0000 0.20900  0.21300  0.10700  Biso   1.000  U 
  U2       1.0000 0.79100  0.78700  0.89300  Biso   1.000  U 
