data_image0
_cell_length_a       5.40529
_cell_length_b       5.40529
_cell_length_c       7.06359
_cell_angle_alpha    90
_cell_angle_beta     90
_cell_angle_gamma    115.246

_symmetry_space_group_name_H-M    "P 1"
_symmetry_int_tables_number       1

loop_
  _symmetry_equiv_pos_as_xyz
  'x, y, z'

loop_
  _atom_site_label
  _atom_site_occupancy
  _atom_site_fract_x
  _atom_site_fract_y
  _atom_site_fract_z
  _atom_site_thermal_displace_type
  _atom_site_B_iso_or_equiv
  _atom_site_type_symbol
  Cr1      1.0000 0.14600  0.85400  0.25000  Biso   1.000  Cr
  Cr2      1.0000 0.85400  0.14600  0.75000  Biso   1.000  Cr
  Na1      1.0000 0.50000  0.50000  0.00000  Biso   1.000  Na
  Na2      1.0000 0.81200  0.18800  0.25000  Biso   1.000  Na
  Na3      1.0000 0.50000  0.50000  0.50000  Biso   1.000  Na
  Na4      1.0000 0.18800  0.81200  0.75000  Biso   1.000  Na
  O1       1.0000 0.25100  0.74900  0.06000  Biso   1.000  O 
  O2       1.0000 0.27400  0.19400  0.25000  Biso   1.000  O 
  O3       1.0000 0.80600  0.72600  0.25000  Biso   1.000  O 
  O4       1.0000 0.25100  0.74900  0.44000  Biso   1.000  O 
  O5       1.0000 0.74900  0.25100  0.56000  Biso   1.000  O 
  O6       1.0000 0.19400  0.27400  0.75000  Biso   1.000  O 
  O7       1.0000 0.72600  0.80600  0.75000  Biso   1.000  O 
  O8       1.0000 0.74900  0.25100  0.94000  Biso   1.000  O 
