data_image0
_cell_length_a       6.41569
_cell_length_b       7.47174
_cell_length_c       6.29775
_cell_angle_alpha    90
_cell_angle_beta     109.209
_cell_angle_gamma    90

_symmetry_space_group_name_H-M    "P 1"
_symmetry_int_tables_number       1

loop_
  _symmetry_equiv_pos_as_xyz
  'x, y, z'

loop_
  _atom_site_label
  _atom_site_occupancy
  _atom_site_fract_x
  _atom_site_fract_y
  _atom_site_fract_z
  _atom_site_thermal_displace_type
  _atom_site_B_iso_or_equiv
  _atom_site_type_symbol
  Cl1      1.0000 0.77300  0.89200  0.00215  Biso   1.000  Cl
  Cl2      1.0000 0.74400  0.36400  0.01960  Biso   1.000  Cl
  Cl3      1.0000 0.25600  0.36400  0.48000  Biso   1.000  Cl
  Cl4      1.0000 0.22700  0.89200  0.49800  Biso   1.000  Cl
  Cl5      1.0000 0.77300  0.10800  0.50200  Biso   1.000  Cl
  Cl6      1.0000 0.74400  0.63600  0.52000  Biso   1.000  Cl
  Cl7      1.0000 0.25600  0.63600  0.98000  Biso   1.000  Cl
  Cl8      1.0000 0.22700  0.10800  0.99800  Biso   1.000  Cl
  Zr1      1.0000 0.00000  0.16400  0.25000  Biso   1.000  Zr
  Zr2      1.0000 0.00000  0.83600  0.75000  Biso   1.000  Zr
