data_image0
_cell_length_a       10.8648
_cell_length_b       10.8815
_cell_length_c       3.92863
_cell_angle_alpha    90
_cell_angle_beta     90
_cell_angle_gamma    90

_symmetry_space_group_name_H-M    "P 1"
_symmetry_int_tables_number       1

loop_
  _symmetry_equiv_pos_as_xyz
  'x, y, z'

loop_
  _atom_site_label
  _atom_site_occupancy
  _atom_site_fract_x
  _atom_site_fract_y
  _atom_site_fract_z
  _atom_site_thermal_displace_type
  _atom_site_B_iso_or_equiv
  _atom_site_type_symbol
  S1       1.0000 0.87600  0.05200  0.25000  Biso   1.000  S 
  S2       1.0000 0.20500  0.22300  0.25000  Biso   1.000  S 
  S3       1.0000 0.94500  0.37500  0.25000  Biso   1.000  S 
  S4       1.0000 0.62400  0.55200  0.25000  Biso   1.000  S 
  S5       1.0000 0.29500  0.72300  0.25000  Biso   1.000  S 
  S6       1.0000 0.55500  0.87500  0.25000  Biso   1.000  S 
  S7       1.0000 0.44500  0.12500  0.75000  Biso   1.000  S 
  S8       1.0000 0.70500  0.27700  0.75000  Biso   1.000  S 
  S9       1.0000 0.37600  0.44800  0.75000  Biso   1.000  S 
  S10      1.0000 0.05540  0.62500  0.75000  Biso   1.000  S 
  S11      1.0000 0.79500  0.77700  0.75000  Biso   1.000  S 
  S12      1.0000 0.12400  0.94800  0.75000  Biso   1.000  S 
  Th1      1.0000 0.51300  0.30400  0.25000  Biso   1.000  Th
  Th2      1.0000 0.18400  0.48500  0.25000  Biso   1.000  Th
  Th3      1.0000 0.98700  0.80400  0.25000  Biso   1.000  Th
  Th4      1.0000 0.31600  0.98500  0.25000  Biso   1.000  Th
  Th5      1.0000 0.68400  0.01490  0.75000  Biso   1.000  Th
  Th6      1.0000 0.01300  0.19600  0.75000  Biso   1.000  Th
  Th7      1.0000 0.81600  0.51500  0.75000  Biso   1.000  Th
  Th8      1.0000 0.48700  0.69600  0.75000  Biso   1.000  Th
