data_image0
_cell_length_a       7.06424
_cell_length_b       7.06424
_cell_length_c       12.8621
_cell_angle_alpha    90
_cell_angle_beta     90
_cell_angle_gamma    90

_symmetry_space_group_name_H-M    "P 1"
_symmetry_int_tables_number       1

loop_
  _symmetry_equiv_pos_as_xyz
  'x, y, z'

loop_
  _atom_site_label
  _atom_site_occupancy
  _atom_site_fract_x
  _atom_site_fract_y
  _atom_site_fract_z
  _atom_site_thermal_displace_type
  _atom_site_B_iso_or_equiv
  _atom_site_type_symbol
  Hf1      1.0000 0.17500  0.17500  0.00000  Biso   1.000  Hf
  Hf2      1.0000 0.50300  0.84700  0.03290  Biso   1.000  Hf
  Hf3      1.0000 0.00041  0.85400  0.12400  Biso   1.000  Hf
  Hf4      1.0000 0.50000  0.35400  0.12600  Biso   1.000  Hf
  Hf5      1.0000 0.99700  0.34700  0.21700  Biso   1.000  Hf
  Hf6      1.0000 0.32500  0.67500  0.25000  Biso   1.000  Hf
  Hf7      1.0000 0.65300  0.00268  0.28300  Biso   1.000  Hf
  Hf8      1.0000 0.64600  0.50000  0.37400  Biso   1.000  Hf
  Hf9      1.0000 0.14600  0.00000  0.37600  Biso   1.000  Hf
  Hf10     1.0000 0.15300  0.49700  0.46700  Biso   1.000  Hf
  Hf11     1.0000 0.82500  0.82500  0.50000  Biso   1.000  Hf
  Hf12     1.0000 0.49700  0.15300  0.53300  Biso   1.000  Hf
  Hf13     1.0000 0.00000  0.14600  0.62400  Biso   1.000  Hf
  Hf14     1.0000 0.50000  0.64600  0.62600  Biso   1.000  Hf
  Hf15     1.0000 0.00268  0.65300  0.71700  Biso   1.000  Hf
  Hf16     1.0000 0.67500  0.32500  0.75000  Biso   1.000  Hf
  Hf17     1.0000 0.34700  0.99700  0.78300  Biso   1.000  Hf
  Hf18     1.0000 0.35400  0.50000  0.87400  Biso   1.000  Hf
  Hf19     1.0000 0.85400  0.00041  0.87600  Biso   1.000  Hf
  Hf20     1.0000 0.84700  0.50300  0.96700  Biso   1.000  Hf
  Si1      1.0000 0.19700  0.54800  0.06380  Biso   1.000  Si
  Si2      1.0000 0.79600  0.14700  0.07290  Biso   1.000  Si
  Si3      1.0000 0.70400  0.64700  0.17700  Biso   1.000  Si
  Si4      1.0000 0.30300  0.04750  0.18600  Biso   1.000  Si
  Si5      1.0000 0.95200  0.69700  0.31400  Biso   1.000  Si
  Si6      1.0000 0.35300  0.29600  0.32300  Biso   1.000  Si
  Si7      1.0000 0.85300  0.20400  0.42700  Biso   1.000  Si
  Si8      1.0000 0.45200  0.80300  0.43600  Biso   1.000  Si
  Si9      1.0000 0.80300  0.45200  0.56400  Biso   1.000  Si
  Si10     1.0000 0.20400  0.85300  0.57300  Biso   1.000  Si
  Si11     1.0000 0.29600  0.35300  0.67700  Biso   1.000  Si
  Si12     1.0000 0.69700  0.95200  0.68600  Biso   1.000  Si
  Si13     1.0000 0.04750  0.30300  0.81400  Biso   1.000  Si
  Si14     1.0000 0.64700  0.70400  0.82300  Biso   1.000  Si
  Si15     1.0000 0.14700  0.79600  0.92700  Biso   1.000  Si
  Si16     1.0000 0.54800  0.19700  0.93600  Biso   1.000  Si
