data_image0
_cell_length_a       4.95662
_cell_length_b       4.95662
_cell_length_c       6.86847
_cell_angle_alpha    111.151
_cell_angle_beta     111.151
_cell_angle_gamma    90

_symmetry_space_group_name_H-M    "P 1"
_symmetry_int_tables_number       1

loop_
  _symmetry_equiv_pos_as_xyz
  'x, y, z'

loop_
  _atom_site_label
  _atom_site_occupancy
  _atom_site_fract_x
  _atom_site_fract_y
  _atom_site_fract_z
  _atom_site_thermal_displace_type
  _atom_site_B_iso_or_equiv
  _atom_site_type_symbol
  Hg1      1.0000 0.11300  0.11300  0.22600  Biso   1.000  Hg
  Hg2      1.0000 0.88700  0.88700  0.77400  Biso   1.000  Hg
  I1       1.0000 0.65100  0.65100  0.30200  Biso   1.000  I 
  I2       1.0000 0.34900  0.34900  0.69800  Biso   1.000  I 
