data_image0
_cell_length_a       7.78173
_cell_length_b       7.78173
_cell_length_c       4.97188
_cell_angle_alpha    90
_cell_angle_beta     90
_cell_angle_gamma    90

_symmetry_space_group_name_H-M    "P 1"
_symmetry_int_tables_number       1

loop_
  _symmetry_equiv_pos_as_xyz
  'x, y, z'

loop_
  _atom_site_label
  _atom_site_occupancy
  _atom_site_fract_x
  _atom_site_fract_y
  _atom_site_fract_z
  _atom_site_thermal_displace_type
  _atom_site_B_iso_or_equiv
  _atom_site_type_symbol
  Ca1      1.0000 0.83300  0.33300  0.49600  Biso   1.000  Ca
  Ca2      1.0000 0.16700  0.66700  0.49600  Biso   1.000  Ca
  Ca3      1.0000 0.33300  0.16700  0.50400  Biso   1.000  Ca
  Ca4      1.0000 0.66700  0.83300  0.50400  Biso   1.000  Ca
  Mg1      1.0000 0.00000  0.00000  0.00000  Biso   1.000  Mg
  Mg2      1.0000 0.50000  0.50000  0.00000  Biso   1.000  Mg
  O1       1.0000 0.50000  0.00000  0.18700  Biso   1.000  O 
  O2       1.0000 0.81700  0.08200  0.22300  Biso   1.000  O 
  O3       1.0000 0.58200  0.31700  0.22300  Biso   1.000  O 
  O4       1.0000 0.41800  0.68300  0.22300  Biso   1.000  O 
  O5       1.0000 0.18300  0.91800  0.22300  Biso   1.000  O 
  O6       1.0000 0.14200  0.35800  0.25500  Biso   1.000  O 
  O7       1.0000 0.85800  0.64200  0.25500  Biso   1.000  O 
  O8       1.0000 0.64200  0.14200  0.74500  Biso   1.000  O 
  O9       1.0000 0.35800  0.85800  0.74500  Biso   1.000  O 
  O10      1.0000 0.08200  0.18300  0.77700  Biso   1.000  O 
  O11      1.0000 0.31700  0.41800  0.77700  Biso   1.000  O 
  O12      1.0000 0.68300  0.58200  0.77700  Biso   1.000  O 
  O13      1.0000 0.91800  0.81700  0.77700  Biso   1.000  O 
  O14      1.0000 0.00000  0.50000  0.81300  Biso   1.000  O 
  Si1      1.0000 0.64200  0.14200  0.06890  Biso   1.000  Si
  Si2      1.0000 0.35800  0.85800  0.06890  Biso   1.000  Si
  Si3      1.0000 0.14200  0.35800  0.93100  Biso   1.000  Si
  Si4      1.0000 0.85800  0.64200  0.93100  Biso   1.000  Si
