data_image0
_cell_length_a       4.29244
_cell_length_b       4.29232
_cell_length_c       6.89621
_cell_angle_alpha    90
_cell_angle_beta     90
_cell_angle_gamma    120.001

_symmetry_space_group_name_H-M    "P 1"
_symmetry_int_tables_number       1

loop_
  _symmetry_equiv_pos_as_xyz
  'x, y, z'

loop_
  _atom_site_label
  _atom_site_occupancy
  _atom_site_fract_x
  _atom_site_fract_y
  _atom_site_fract_z
  _atom_site_thermal_displace_type
  _atom_site_B_iso_or_equiv
  _atom_site_type_symbol
  F1       1.0000 0.66700  0.33300  0.49400  Biso   1.000  F 
  F2       1.0000 0.33300  0.66700  0.99400  Biso   1.000  F 
  H1       1.0000 0.33300  0.66700  0.22100  Biso   1.000  H 
  H2       1.0000 0.46700  0.93300  0.42300  Biso   1.000  H 
  H3       1.0000 0.06680  0.53300  0.42300  Biso   1.000  H 
  H4       1.0000 0.46700  0.53300  0.42300  Biso   1.000  H 
  H5       1.0000 0.66700  0.33300  0.72100  Biso   1.000  H 
  H6       1.0000 0.53300  0.06680  0.92300  Biso   1.000  H 
  H7       1.0000 0.53300  0.46700  0.92300  Biso   1.000  H 
  H8       1.0000 0.93300  0.46700  0.92300  Biso   1.000  H 
  N1       1.0000 0.33300  0.66700  0.37300  Biso   1.000  N 
  N2       1.0000 0.66700  0.33300  0.87300  Biso   1.000  N 
