data_image0
_cell_length_a       5.03027
_cell_length_b       5.40741
_cell_length_c       6.34303
_cell_angle_alpha    69.985
_cell_angle_beta     85.5527
_cell_angle_gamma    68.2781

_symmetry_space_group_name_H-M    "P 1"
_symmetry_int_tables_number       1

loop_
  _symmetry_equiv_pos_as_xyz
  'x, y, z'

loop_
  _atom_site_label
  _atom_site_occupancy
  _atom_site_fract_x
  _atom_site_fract_y
  _atom_site_fract_z
  _atom_site_thermal_displace_type
  _atom_site_B_iso_or_equiv
  _atom_site_type_symbol
  As1      1.0000 0.63300  0.64700  0.22100  Biso   1.000  As
  As2      1.0000 0.36700  0.35300  0.77900  Biso   1.000  As
  Cu1      1.0000 0.00000  0.00000  0.00000  Biso   1.000  Cu
  Cu2      1.0000 0.26500  0.21600  0.32500  Biso   1.000  Cu
  Cu3      1.0000 0.73500  0.78400  0.67500  Biso   1.000  Cu
  O1       1.0000 0.22000  0.20600  0.03110  Biso   1.000  O 
  O2       1.0000 0.30600  0.64200  0.16400  Biso   1.000  O 
  O3       1.0000 0.62300  0.87700  0.36400  Biso   1.000  O 
  O4       1.0000 0.85500  0.31600  0.36700  Biso   1.000  O 
  O5       1.0000 0.14500  0.68400  0.63300  Biso   1.000  O 
  O6       1.0000 0.37800  0.12300  0.63600  Biso   1.000  O 
  O7       1.0000 0.69400  0.35800  0.83600  Biso   1.000  O 
  O8       1.0000 0.78000  0.79400  0.96900  Biso   1.000  O 
