data_image0
_cell_length_a       9.96903
_cell_length_b       6.97427
_cell_length_c       5.49917
_cell_angle_alpha    90
_cell_angle_beta     90
_cell_angle_gamma    90

_symmetry_space_group_name_H-M    "P 1"
_symmetry_int_tables_number       1

loop_
  _symmetry_equiv_pos_as_xyz
  'x, y, z'

loop_
  _atom_site_label
  _atom_site_occupancy
  _atom_site_fract_x
  _atom_site_fract_y
  _atom_site_fract_z
  _atom_site_thermal_displace_type
  _atom_site_B_iso_or_equiv
  _atom_site_type_symbol
  Ag1      1.0000 0.00000  0.00000  0.00000  Biso   1.000  Ag
  Ag2      1.0000 0.00000  0.50000  0.00000  Biso   1.000  Ag
  Ag3      1.0000 0.63500  0.25000  0.00054  Biso   1.000  Ag
  Ag4      1.0000 0.13500  0.25000  0.49900  Biso   1.000  Ag
  Ag5      1.0000 0.50000  0.00000  0.50000  Biso   1.000  Ag
  Ag6      1.0000 0.50000  0.50000  0.50000  Biso   1.000  Ag
  Ag7      1.0000 0.86500  0.75000  0.50100  Biso   1.000  Ag
  Ag8      1.0000 0.36500  0.75000  0.99900  Biso   1.000  Ag
  Cr1      1.0000 0.68300  0.75000  0.01440  Biso   1.000  Cr
  Cr2      1.0000 0.18300  0.75000  0.48600  Biso   1.000  Cr
  Cr3      1.0000 0.81700  0.25000  0.51400  Biso   1.000  Cr
  Cr4      1.0000 0.31700  0.25000  0.98600  Biso   1.000  Cr
  O1       1.0000 0.85100  0.75000  0.07080  Biso   1.000  O 
  O2       1.0000 0.61600  0.55500  0.14400  Biso   1.000  O 
  O3       1.0000 0.61600  0.94500  0.14400  Biso   1.000  O 
  O4       1.0000 0.85100  0.25000  0.21600  Biso   1.000  O 
  O5       1.0000 0.35100  0.25000  0.28400  Biso   1.000  O 
  O6       1.0000 0.11600  0.55500  0.35600  Biso   1.000  O 
  O7       1.0000 0.11600  0.94500  0.35600  Biso   1.000  O 
  O8       1.0000 0.35100  0.75000  0.42900  Biso   1.000  O 
  O9       1.0000 0.64900  0.25000  0.57100  Biso   1.000  O 
  O10      1.0000 0.88400  0.05480  0.64400  Biso   1.000  O 
  O11      1.0000 0.88400  0.44500  0.64400  Biso   1.000  O 
  O12      1.0000 0.64900  0.75000  0.71600  Biso   1.000  O 
  O13      1.0000 0.14900  0.75000  0.78400  Biso   1.000  O 
  O14      1.0000 0.38400  0.05480  0.85600  Biso   1.000  O 
  O15      1.0000 0.38400  0.44500  0.85600  Biso   1.000  O 
  O16      1.0000 0.14900  0.25000  0.92900  Biso   1.000  O 
