data_image0
_cell_length_a       3.796
_cell_length_b       3.796
_cell_length_c       6.88819
_cell_angle_alpha    105.994
_cell_angle_beta     105.994
_cell_angle_gamma    90

_symmetry_space_group_name_H-M    "P 1"
_symmetry_int_tables_number       1

loop_
  _symmetry_equiv_pos_as_xyz
  'x, y, z'

loop_
  _atom_site_label
  _atom_site_occupancy
  _atom_site_fract_x
  _atom_site_fract_y
  _atom_site_fract_z
  _atom_site_thermal_displace_type
  _atom_site_B_iso_or_equiv
  _atom_site_type_symbol
  Cr1      1.0000 0.00000  0.00000  0.00000  Biso   1.000  Cr
  O1       1.0000 0.50000  0.00000  0.00000  Biso   1.000  O 
  O2       1.0000 0.00000  0.50000  0.00000  Biso   1.000  O 
  O3       1.0000 0.15900  0.15900  0.31800  Biso   1.000  O 
  O4       1.0000 0.84100  0.84100  0.68200  Biso   1.000  O 
  Sr1      1.0000 0.64800  0.64800  0.29500  Biso   1.000  Sr
  Sr2      1.0000 0.35200  0.35200  0.70500  Biso   1.000  Sr
