data_image0
_cell_length_a       4.45065
_cell_length_b       3.89976
_cell_length_c       10.9861
_cell_angle_alpha    90
_cell_angle_beta     90
_cell_angle_gamma    90

_symmetry_space_group_name_H-M    "P 1"
_symmetry_int_tables_number       1

loop_
  _symmetry_equiv_pos_as_xyz
  'x, y, z'

loop_
  _atom_site_label
  _atom_site_occupancy
  _atom_site_fract_x
  _atom_site_fract_y
  _atom_site_fract_z
  _atom_site_thermal_displace_type
  _atom_site_B_iso_or_equiv
  _atom_site_type_symbol
  Ge1      1.0000 0.89000  0.75000  0.12200  Biso   1.000  Ge
  Ge2      1.0000 0.39000  0.25000  0.37800  Biso   1.000  Ge
  Ge3      1.0000 0.61000  0.75000  0.62200  Biso   1.000  Ge
  Ge4      1.0000 0.11000  0.25000  0.87800  Biso   1.000  Ge
  Se1      1.0000 0.50600  0.25000  0.14700  Biso   1.000  Se
  Se2      1.0000 0.00566  0.75000  0.35300  Biso   1.000  Se
  Se3      1.0000 0.99400  0.25000  0.64700  Biso   1.000  Se
  Se4      1.0000 0.49400  0.75000  0.85300  Biso   1.000  Se
