data_image0
_cell_length_a       6.36322
_cell_length_b       6.3621
_cell_length_c       3.68237
_cell_angle_alpha    90
_cell_angle_beta     90
_cell_angle_gamma    120.002

_symmetry_space_group_name_H-M    "P 1"
_symmetry_int_tables_number       1

loop_
  _symmetry_equiv_pos_as_xyz
  'x, y, z'

loop_
  _atom_site_label
  _atom_site_occupancy
  _atom_site_fract_x
  _atom_site_fract_y
  _atom_site_fract_z
  _atom_site_thermal_displace_type
  _atom_site_B_iso_or_equiv
  _atom_site_type_symbol
  H1       1.0000 0.27300  0.13200  0.25000  Biso   1.000  H 
  H2       1.0000 0.86800  0.14100  0.25000  Biso   1.000  H 
  H3       1.0000 0.85900  0.72700  0.25000  Biso   1.000  H 
  H4       1.0000 0.14100  0.27300  0.75000  Biso   1.000  H 
  H5       1.0000 0.13200  0.85900  0.75000  Biso   1.000  H 
  H6       1.0000 0.72700  0.86800  0.75000  Biso   1.000  H 
  Nd1      1.0000 0.33300  0.66700  0.25000  Biso   1.000  Nd
  Nd2      1.0000 0.66700  0.33300  0.75000  Biso   1.000  Nd
  O1       1.0000 0.69400  0.08120  0.25000  Biso   1.000  O 
  O2       1.0000 0.38700  0.30600  0.25000  Biso   1.000  O 
  O3       1.0000 0.91900  0.61300  0.25000  Biso   1.000  O 
  O4       1.0000 0.08120  0.38700  0.75000  Biso   1.000  O 
  O5       1.0000 0.61300  0.69400  0.75000  Biso   1.000  O 
  O6       1.0000 0.30600  0.91900  0.75000  Biso   1.000  O 
