data_image0
_cell_length_a       3.74462
_cell_length_b       3.74462
_cell_length_c       3.74462
_cell_angle_alpha    119.039
_cell_angle_beta     119.038
_cell_angle_gamma    60.9615

_symmetry_space_group_name_H-M    "P 1"
_symmetry_int_tables_number       1

loop_
  _symmetry_equiv_pos_as_xyz
  'x, y, z'

loop_
  _atom_site_label
  _atom_site_occupancy
  _atom_site_fract_x
  _atom_site_fract_y
  _atom_site_fract_z
  _atom_site_thermal_displace_type
  _atom_site_B_iso_or_equiv
  _atom_site_type_symbol
  Ca1      1.0000 0.00000  0.00000  0.00000  Biso   1.000  Ca
  F1       1.0000 0.74800  0.74800  0.25200  Biso   1.000  F 
  F2       1.0000 0.25200  0.25200  0.74800  Biso   1.000  F 
