data_image0
_cell_length_a       7.59815
_cell_length_b       7.59815
_cell_length_c       7.59815
_cell_angle_alpha    109.471
_cell_angle_beta     109.471
_cell_angle_gamma    109.471

_symmetry_space_group_name_H-M    "P 1"
_symmetry_int_tables_number       1

loop_
  _symmetry_equiv_pos_as_xyz
  'x, y, z'

loop_
  _atom_site_label
  _atom_site_occupancy
  _atom_site_fract_x
  _atom_site_fract_y
  _atom_site_fract_z
  _atom_site_thermal_displace_type
  _atom_site_B_iso_or_equiv
  _atom_site_type_symbol
  C1       1.0000 0.25000  0.29900  0.04940  Biso   1.000  C 
  C2       1.0000 0.25000  0.45100  0.20100  Biso   1.000  C 
  C3       1.0000 0.04940  0.79900  0.25000  Biso   1.000  C 
  C4       1.0000 0.20100  0.95100  0.25000  Biso   1.000  C 
  C5       1.0000 0.75000  0.04940  0.29900  Biso   1.000  C 
  C6       1.0000 0.75000  0.20100  0.45100  Biso   1.000  C 
  C7       1.0000 0.79900  0.75000  0.54900  Biso   1.000  C 
  C8       1.0000 0.95100  0.75000  0.70100  Biso   1.000  C 
  C9       1.0000 0.29900  0.54900  0.75000  Biso   1.000  C 
  C10      1.0000 0.45100  0.70100  0.75000  Biso   1.000  C 
  C11      1.0000 0.54900  0.25000  0.79900  Biso   1.000  C 
  C12      1.0000 0.70100  0.25000  0.95100  Biso   1.000  C 
  Ce1      1.0000 0.39600  0.00000  0.00000  Biso   1.000  Ce
  Ce2      1.0000 0.89600  0.00000  0.00000  Biso   1.000  Ce
  Ce3      1.0000 0.60400  0.60400  0.10400  Biso   1.000  Ce
  Ce4      1.0000 0.00000  0.50000  0.39600  Biso   1.000  Ce
  Ce5      1.0000 0.50000  0.89600  0.50000  Biso   1.000  Ce
  Ce6      1.0000 0.50000  0.39600  0.50000  Biso   1.000  Ce
  Ce7      1.0000 0.10400  0.10400  0.60400  Biso   1.000  Ce
  Ce8      1.0000 0.00000  0.50000  0.89600  Biso   1.000  Ce
