data_image0
_cell_length_a       5.26183
_cell_length_b       5.26183
_cell_length_c       13.0998
_cell_angle_alpha    90
_cell_angle_beta     90
_cell_angle_gamma    113.074

_symmetry_space_group_name_H-M    "P 1"
_symmetry_int_tables_number       1

loop_
  _symmetry_equiv_pos_as_xyz
  'x, y, z'

loop_
  _atom_site_label
  _atom_site_occupancy
  _atom_site_fract_x
  _atom_site_fract_y
  _atom_site_fract_z
  _atom_site_thermal_displace_type
  _atom_site_B_iso_or_equiv
  _atom_site_type_symbol
  Al1      1.0000 0.50000  0.00000  0.00000  Biso   1.000  Al
  Al2      1.0000 0.00000  0.50000  0.00000  Biso   1.000  Al
  Al3      1.0000 0.50000  0.00000  0.50000  Biso   1.000  Al
  Al4      1.0000 0.00000  0.50000  0.50000  Biso   1.000  Al
  Ca1      1.0000 0.33400  0.66600  0.25000  Biso   1.000  Ca
  Ca2      1.0000 0.66600  0.33400  0.75000  Biso   1.000  Ca
  H1       1.0000 0.53100  0.46900  0.06520  Biso   1.000  H 
  H2       1.0000 0.66300  0.33700  0.18700  Biso   1.000  H 
  H3       1.0000 0.66300  0.33700  0.31300  Biso   1.000  H 
  H4       1.0000 0.53100  0.46900  0.43500  Biso   1.000  H 
  H5       1.0000 0.46900  0.53100  0.56500  Biso   1.000  H 
  H6       1.0000 0.33700  0.66300  0.68700  Biso   1.000  H 
  H7       1.0000 0.33700  0.66300  0.81300  Biso   1.000  H 
  H8       1.0000 0.46900  0.53100  0.93500  Biso   1.000  H 
  O1       1.0000 0.64100  0.35900  0.05310  Biso   1.000  O 
  O2       1.0000 0.13900  0.86100  0.06370  Biso   1.000  O 
  O3       1.0000 0.11300  0.35100  0.11700  Biso   1.000  O 
  O4       1.0000 0.64900  0.88700  0.11700  Biso   1.000  O 
  O5       1.0000 0.60300  0.39700  0.25000  Biso   1.000  O 
  O6       1.0000 0.05360  0.94600  0.25000  Biso   1.000  O 
  O7       1.0000 0.11300  0.35100  0.38300  Biso   1.000  O 
  O8       1.0000 0.64900  0.88700  0.38300  Biso   1.000  O 
  O9       1.0000 0.13900  0.86100  0.43600  Biso   1.000  O 
  O10      1.0000 0.64100  0.35900  0.44700  Biso   1.000  O 
  O11      1.0000 0.35900  0.64100  0.55300  Biso   1.000  O 
  O12      1.0000 0.86100  0.13900  0.56400  Biso   1.000  O 
  O13      1.0000 0.35100  0.11300  0.61700  Biso   1.000  O 
  O14      1.0000 0.88700  0.64900  0.61700  Biso   1.000  O 
  O15      1.0000 0.94600  0.05360  0.75000  Biso   1.000  O 
  O16      1.0000 0.39700  0.60300  0.75000  Biso   1.000  O 
  O17      1.0000 0.35100  0.11300  0.88300  Biso   1.000  O 
  O18      1.0000 0.88700  0.64900  0.88300  Biso   1.000  O 
  O19      1.0000 0.86100  0.13900  0.93600  Biso   1.000  O 
  O20      1.0000 0.35900  0.64100  0.94700  Biso   1.000  O 
  Si1      1.0000 0.98200  0.01790  0.13300  Biso   1.000  Si
  Si2      1.0000 0.98200  0.01790  0.36700  Biso   1.000  Si
  Si3      1.0000 0.01790  0.98200  0.63300  Biso   1.000  Si
  Si4      1.0000 0.01790  0.98200  0.86700  Biso   1.000  Si
