data_image0
_cell_length_a       6.52614
_cell_length_b       6.52618
_cell_length_c       4.62479
_cell_angle_alpha    90
_cell_angle_beta     90
_cell_angle_gamma    120

_symmetry_space_group_name_H-M    "P 1"
_symmetry_int_tables_number       1

loop_
  _symmetry_equiv_pos_as_xyz
  'x, y, z'

loop_
  _atom_site_label
  _atom_site_occupancy
  _atom_site_fract_x
  _atom_site_fract_y
  _atom_site_fract_z
  _atom_site_thermal_displace_type
  _atom_site_B_iso_or_equiv
  _atom_site_type_symbol
  Al1      1.0000 0.28200  0.14100  0.25000  Biso   1.000  Al
  Al2      1.0000 0.85900  0.14100  0.25000  Biso   1.000  Al
  Al3      1.0000 0.85900  0.71800  0.25000  Biso   1.000  Al
  Al4      1.0000 0.14100  0.28200  0.75000  Biso   1.000  Al
  Al5      1.0000 0.14100  0.85900  0.75000  Biso   1.000  Al
  Al6      1.0000 0.71800  0.85900  0.75000  Biso   1.000  Al
  Th1      1.0000 0.33300  0.66700  0.25000  Biso   1.000  Th
  Th2      1.0000 0.66700  0.33300  0.75000  Biso   1.000  Th
