data_image0
_cell_length_a       6.46151
_cell_length_b       6.46182
_cell_length_c       7.25419
_cell_angle_alpha    116.445
_cell_angle_beta     63.5563
_cell_angle_gamma    119.999

_symmetry_space_group_name_H-M    "P 1"
_symmetry_int_tables_number       1

loop_
  _symmetry_equiv_pos_as_xyz
  'x, y, z'

loop_
  _atom_site_label
  _atom_site_occupancy
  _atom_site_fract_x
  _atom_site_fract_y
  _atom_site_fract_z
  _atom_site_thermal_displace_type
  _atom_site_B_iso_or_equiv
  _atom_site_type_symbol
  Br1      1.0000 0.92200  0.72500  0.23600  Biso   1.000  Br
  Br2      1.0000 0.27500  0.43300  0.23600  Biso   1.000  Br
  Br3      1.0000 0.56700  0.07830  0.23600  Biso   1.000  Br
  Br4      1.0000 0.43300  0.92200  0.76400  Biso   1.000  Br
  Br5      1.0000 0.72500  0.56700  0.76400  Biso   1.000  Br
  Br6      1.0000 0.07820  0.27500  0.76400  Biso   1.000  Br
  Fe1      1.0000 0.66600  0.33400  0.00107  Biso   1.000  Fe
  Fe2      1.0000 0.33400  0.66600  0.99900  Biso   1.000  Fe
