data_image0
_cell_length_a       4.83754
_cell_length_b       4.83754
_cell_length_c       4.83754
_cell_angle_alpha    89.989
_cell_angle_beta     120.006
_cell_angle_gamma    120.006

_symmetry_space_group_name_H-M    "P 1"
_symmetry_int_tables_number       1

loop_
  _symmetry_equiv_pos_as_xyz
  'x, y, z'

loop_
  _atom_site_label
  _atom_site_occupancy
  _atom_site_fract_x
  _atom_site_fract_y
  _atom_site_fract_z
  _atom_site_thermal_displace_type
  _atom_site_B_iso_or_equiv
  _atom_site_type_symbol
  Al1      1.0000 0.00000  0.00000  0.00000  Biso   1.000  Al
  O1       1.0000 0.42200  0.15100  0.01770  Biso   1.000  O 
  O2       1.0000 0.13300  0.98200  0.40400  Biso   1.000  O 
  O3       1.0000 0.57800  0.59600  0.72900  Biso   1.000  O 
  O4       1.0000 0.86700  0.27100  0.84900  Biso   1.000  O 
  P1       1.0000 0.50000  0.25000  0.75000  Biso   1.000  P 
