data_image0
_cell_length_a       4.25317
_cell_length_b       4.25317
_cell_length_c       5.02192
_cell_angle_alpha    115.053
_cell_angle_beta     115.053
_cell_angle_gamma    90

_symmetry_space_group_name_H-M    "P 1"
_symmetry_int_tables_number       1

loop_
  _symmetry_equiv_pos_as_xyz
  'x, y, z'

loop_
  _atom_site_label
  _atom_site_occupancy
  _atom_site_fract_x
  _atom_site_fract_y
  _atom_site_fract_z
  _atom_site_thermal_displace_type
  _atom_site_B_iso_or_equiv
  _atom_site_type_symbol
  Mo1      1.0000 0.51100  0.01120  0.02250  Biso   1.000  Mo
  Mo2      1.0000 0.73900  0.73900  0.47800  Biso   1.000  Mo
  Mo3      1.0000 0.26100  0.26100  0.52200  Biso   1.000  Mo
  Mo4      1.0000 0.98900  0.48900  0.97800  Biso   1.000  Mo
  N1       1.0000 0.00000  0.00000  0.00000  Biso   1.000  N 
  N2       1.0000 0.25000  0.75000  0.50000  Biso   1.000  N 
