data_image0
_cell_length_a       7.59546
_cell_length_b       7.99
_cell_length_c       7.99
_cell_angle_alpha    110.45
_cell_angle_beta     108.474
_cell_angle_gamma    108.474

_symmetry_space_group_name_H-M    "P 1"
_symmetry_int_tables_number       1

loop_
  _symmetry_equiv_pos_as_xyz
  'x, y, z'

loop_
  _atom_site_label
  _atom_site_occupancy
  _atom_site_fract_x
  _atom_site_fract_y
  _atom_site_fract_z
  _atom_site_thermal_displace_type
  _atom_site_B_iso_or_equiv
  _atom_site_type_symbol
  B1       1.0000 0.86100  0.22100  0.11100  Biso   1.000  B 
  B2       1.0000 0.75000  0.88900  0.11100  Biso   1.000  B 
  B3       1.0000 0.36100  0.11100  0.22100  Biso   1.000  B 
  B4       1.0000 0.63900  0.88900  0.77900  Biso   1.000  B 
  B5       1.0000 0.25000  0.11100  0.88900  Biso   1.000  B 
  B6       1.0000 0.13900  0.77900  0.88900  Biso   1.000  B 
  O1       1.0000 0.25000  0.89400  0.10600  Biso   1.000  O 
  O2       1.0000 0.35600  0.21200  0.10600  Biso   1.000  O 
  O3       1.0000 0.96100  0.42300  0.21100  Biso   1.000  O 
  O4       1.0000 0.75000  0.78900  0.21100  Biso   1.000  O 
  O5       1.0000 0.85600  0.10600  0.21200  Biso   1.000  O 
  O6       1.0000 0.46100  0.21100  0.42300  Biso   1.000  O 
  O7       1.0000 0.53900  0.78900  0.57700  Biso   1.000  O 
  O8       1.0000 0.14400  0.89400  0.78800  Biso   1.000  O 
  O9       1.0000 0.25000  0.21100  0.78900  Biso   1.000  O 
  O10      1.0000 0.03860  0.57700  0.78900  Biso   1.000  O 
  O11      1.0000 0.64400  0.78800  0.89400  Biso   1.000  O 
  O12      1.0000 0.75000  0.10600  0.89400  Biso   1.000  O 
  Rb1      1.0000 0.31100  0.56100  0.12300  Biso   1.000  Rb
  Rb2      1.0000 0.18900  0.87700  0.43900  Biso   1.000  Rb
  Rb3      1.0000 0.75000  0.56100  0.43900  Biso   1.000  Rb
  Rb4      1.0000 0.25000  0.43900  0.56100  Biso   1.000  Rb
  Rb5      1.0000 0.81100  0.12300  0.56100  Biso   1.000  Rb
  Rb6      1.0000 0.68900  0.43900  0.87700  Biso   1.000  Rb
