data_image0
_cell_length_a       5.45358
_cell_length_b       5.45358
_cell_length_c       8.34006
_cell_angle_alpha    109.084
_cell_angle_beta     70.9162
_cell_angle_gamma    120

_symmetry_space_group_name_H-M    "P 1"
_symmetry_int_tables_number       1

loop_
  _symmetry_equiv_pos_as_xyz
  'x, y, z'

loop_
  _atom_site_label
  _atom_site_occupancy
  _atom_site_fract_x
  _atom_site_fract_y
  _atom_site_fract_z
  _atom_site_thermal_displace_type
  _atom_site_B_iso_or_equiv
  _atom_site_type_symbol
  B1       1.0000 0.58400  0.41600  0.24900  Biso   1.000  B 
  B2       1.0000 0.91600  0.08360  0.25100  Biso   1.000  B 
  B3       1.0000 0.08360  0.91600  0.74900  Biso   1.000  B 
  B4       1.0000 0.41600  0.58400  0.75100  Biso   1.000  B 
  S1       1.0000 0.91900  0.41900  0.25000  Biso   1.000  S 
  S2       1.0000 0.25000  0.08130  0.25000  Biso   1.000  S 
  S3       1.0000 0.58100  0.75000  0.25000  Biso   1.000  S 
  S4       1.0000 0.41900  0.25000  0.75000  Biso   1.000  S 
  S5       1.0000 0.75000  0.91900  0.75000  Biso   1.000  S 
  S6       1.0000 0.08130  0.58100  0.75000  Biso   1.000  S 
