data_image0
_cell_length_a       12.863
_cell_length_b       18.6134
_cell_length_c       6.08428
_cell_angle_alpha    90
_cell_angle_beta     90
_cell_angle_gamma    90

_symmetry_space_group_name_H-M    "P 1"
_symmetry_int_tables_number       1

loop_
  _symmetry_equiv_pos_as_xyz
  'x, y, z'

loop_
  _atom_site_label
  _atom_site_occupancy
  _atom_site_fract_x
  _atom_site_fract_y
  _atom_site_fract_z
  _atom_site_thermal_displace_type
  _atom_site_B_iso_or_equiv
  _atom_site_type_symbol
  Br1      1.0000 0.29600  0.75000  0.72800  Biso   1.000  Br
  Br2      1.0000 0.20400  0.25000  0.22800  Biso   1.000  Br
  Br3      1.0000 0.95500  0.75000  0.24000  Biso   1.000  Br
  Br4      1.0000 0.54500  0.25000  0.74000  Biso   1.000  Br
  Br5      1.0000 0.45500  0.75000  0.26000  Biso   1.000  Br
  Br6      1.0000 0.04490  0.25000  0.76000  Biso   1.000  Br
  Br7      1.0000 0.96800  0.15100  0.23100  Biso   1.000  Br
  Br8      1.0000 0.53200  0.84900  0.73100  Biso   1.000  Br
  Br9      1.0000 0.53200  0.65100  0.73100  Biso   1.000  Br
  Br10     1.0000 0.96800  0.34900  0.23100  Biso   1.000  Br
  Br11     1.0000 0.21900  0.84900  0.25800  Biso   1.000  Br
  Br12     1.0000 0.28100  0.15100  0.75800  Biso   1.000  Br
  Br13     1.0000 0.71900  0.65100  0.24200  Biso   1.000  Br
  Br14     1.0000 0.78100  0.34900  0.74200  Biso   1.000  Br
  Br15     1.0000 0.78100  0.15100  0.74200  Biso   1.000  Br
  Br16     1.0000 0.71900  0.84900  0.24200  Biso   1.000  Br
  Br17     1.0000 0.28100  0.34900  0.75800  Biso   1.000  Br
  Br18     1.0000 0.21900  0.65100  0.25800  Biso   1.000  Br
  Br19     1.0000 0.03990  0.05540  0.74400  Biso   1.000  Br
  Br20     1.0000 0.96000  0.55500  0.25600  Biso   1.000  Br
  Br21     1.0000 0.96000  0.94500  0.25600  Biso   1.000  Br
  Br22     1.0000 0.54000  0.05540  0.75600  Biso   1.000  Br
  Br23     1.0000 0.46000  0.55500  0.24400  Biso   1.000  Br
  Br24     1.0000 0.03990  0.44500  0.74400  Biso   1.000  Br
  Br25     1.0000 0.70900  0.05480  0.25800  Biso   1.000  Br
  Br26     1.0000 0.79100  0.94500  0.75800  Biso   1.000  Br
  Br27     1.0000 0.20900  0.44500  0.24200  Biso   1.000  Br
  Br28     1.0000 0.70900  0.44500  0.25800  Biso   1.000  Br
  Br29     1.0000 0.29100  0.55500  0.74200  Biso   1.000  Br
  Br30     1.0000 0.29100  0.94500  0.74200  Biso   1.000  Br
  Br31     1.0000 0.20900  0.05480  0.24200  Biso   1.000  Br
  Br32     1.0000 0.79100  0.55500  0.75800  Biso   1.000  Br
  Br33     1.0000 0.46000  0.94500  0.24400  Biso   1.000  Br
  Br34     1.0000 0.54000  0.44500  0.75600  Biso   1.000  Br
  Br35     1.0000 0.46800  0.34900  0.26900  Biso   1.000  Br
  Br36     1.0000 0.03170  0.65100  0.76900  Biso   1.000  Br
  Br37     1.0000 0.03170  0.84900  0.76900  Biso   1.000  Br
  Br38     1.0000 0.46800  0.15100  0.26900  Biso   1.000  Br
  Br39     1.0000 0.79600  0.75000  0.77200  Biso   1.000  Br
  Br40     1.0000 0.70400  0.25000  0.27200  Biso   1.000  Br
  Ta1      1.0000 0.12500  0.13900  0.99400  Biso   1.000  Ta
  Ta2      1.0000 0.37500  0.86100  0.49400  Biso   1.000  Ta
  Ta3      1.0000 0.62500  0.36100  0.50600  Biso   1.000  Ta
  Ta4      1.0000 0.87500  0.63900  0.00614  Biso   1.000  Ta
  Ta5      1.0000 0.87500  0.86100  0.00614  Biso   1.000  Ta
  Ta6      1.0000 0.62500  0.13900  0.50600  Biso   1.000  Ta
  Ta7      1.0000 0.37500  0.63900  0.49400  Biso   1.000  Ta
  Ta8      1.0000 0.12500  0.36100  0.99400  Biso   1.000  Ta
