data_image0
_cell_length_a       4.699
_cell_length_b       4.16418
_cell_length_c       2.83663
_cell_angle_alpha    90
_cell_angle_beta     90
_cell_angle_gamma    90

_symmetry_space_group_name_H-M    "P 1"
_symmetry_int_tables_number       1

loop_
  _symmetry_equiv_pos_as_xyz
  'x, y, z'

loop_
  _atom_site_label
  _atom_site_occupancy
  _atom_site_fract_x
  _atom_site_fract_y
  _atom_site_fract_z
  _atom_site_thermal_displace_type
  _atom_site_B_iso_or_equiv
  _atom_site_type_symbol
  Al1      1.0000 0.00000  0.00000  0.00000  Biso   1.000  Al
  Al2      1.0000 0.50000  0.50000  0.50000  Biso   1.000  Al
  H1       1.0000 0.50000  0.00000  0.00000  Biso   1.000  H 
  H2       1.0000 0.00000  0.50000  0.50000  Biso   1.000  H 
  O1       1.0000 0.35400  0.23900  0.00000  Biso   1.000  O 
  O2       1.0000 0.64600  0.76100  0.00000  Biso   1.000  O 
  O3       1.0000 0.85400  0.26100  0.50000  Biso   1.000  O 
  O4       1.0000 0.14600  0.73900  0.50000  Biso   1.000  O 
