data_image0
_cell_length_a       6.79276
_cell_length_b       6.79268
_cell_length_c       7.8883
_cell_angle_alpha    90
_cell_angle_beta     90.0022
_cell_angle_gamma    120

_symmetry_space_group_name_H-M    "P 1"
_symmetry_int_tables_number       1

loop_
  _symmetry_equiv_pos_as_xyz
  'x, y, z'

loop_
  _atom_site_label
  _atom_site_occupancy
  _atom_site_fract_x
  _atom_site_fract_y
  _atom_site_fract_z
  _atom_site_thermal_displace_type
  _atom_site_B_iso_or_equiv
  _atom_site_type_symbol
  Cs1      1.0000 0.00000  0.00000  0.00000  Biso   1.000  Cs
  Cs2      1.0000 0.33300  0.66700  0.35900  Biso   1.000  Cs
  Cs3      1.0000 1.00000  0.00000  0.50000  Biso   1.000  Cs
  Cs4      1.0000 0.66700  0.33300  0.64100  Biso   1.000  Cs
  O1       1.0000 0.84000  0.61600  0.27000  Biso   1.000  O 
  O2       1.0000 0.77500  0.16000  0.27000  Biso   1.000  O 
  O3       1.0000 0.38400  0.22500  0.27000  Biso   1.000  O 
  O4       1.0000 0.61600  0.84000  0.73000  Biso   1.000  O 
  O5       1.0000 0.22500  0.38400  0.73000  Biso   1.000  O 
  O6       1.0000 0.16000  0.77500  0.73000  Biso   1.000  O 
  Te1      1.0000 0.66700  0.33300  0.16200  Biso   1.000  Te
  Te2      1.0000 0.33300  0.66700  0.83800  Biso   1.000  Te
