data_image0
_cell_length_a       9.09084
_cell_length_b       5.47202
_cell_length_c       7.29501
_cell_angle_alpha    90
_cell_angle_beta     90
_cell_angle_gamma    90

_symmetry_space_group_name_H-M    "P 1"
_symmetry_int_tables_number       1

loop_
  _symmetry_equiv_pos_as_xyz
  'x, y, z'

loop_
  _atom_site_label
  _atom_site_occupancy
  _atom_site_fract_x
  _atom_site_fract_y
  _atom_site_fract_z
  _atom_site_thermal_displace_type
  _atom_site_B_iso_or_equiv
  _atom_site_type_symbol
  Ba1      1.0000 0.18200  0.25000  0.15500  Biso   1.000  Ba
  Ba2      1.0000 0.68200  0.25000  0.34500  Biso   1.000  Ba
  Ba3      1.0000 0.31800  0.75000  0.65500  Biso   1.000  Ba
  Ba4      1.0000 0.81800  0.75000  0.84500  Biso   1.000  Ba
  Cr1      1.0000 0.44200  0.75000  0.19400  Biso   1.000  Cr
  Cr2      1.0000 0.94200  0.75000  0.30600  Biso   1.000  Cr
  Cr3      1.0000 0.05790  0.25000  0.69400  Biso   1.000  Cr
  Cr4      1.0000 0.55800  0.25000  0.80600  Biso   1.000  Cr
  O1       1.0000 0.31700  0.75000  0.02990  Biso   1.000  O 
  O2       1.0000 0.61200  0.75000  0.11700  Biso   1.000  O 
  O3       1.0000 0.91700  0.50500  0.17500  Biso   1.000  O 
  O4       1.0000 0.91700  0.99500  0.17500  Biso   1.000  O 
  O5       1.0000 0.41700  0.50500  0.32500  Biso   1.000  O 
  O6       1.0000 0.41700  0.99500  0.32500  Biso   1.000  O 
  O7       1.0000 0.11200  0.75000  0.38300  Biso   1.000  O 
  O8       1.0000 0.81700  0.75000  0.47000  Biso   1.000  O 
  O9       1.0000 0.18300  0.25000  0.53000  Biso   1.000  O 
  O10      1.0000 0.88800  0.25000  0.61700  Biso   1.000  O 
  O11      1.0000 0.58300  0.00456  0.67500  Biso   1.000  O 
  O12      1.0000 0.58300  0.49500  0.67500  Biso   1.000  O 
  O13      1.0000 0.08270  0.00456  0.82500  Biso   1.000  O 
  O14      1.0000 0.08270  0.49500  0.82500  Biso   1.000  O 
  O15      1.0000 0.38800  0.25000  0.88300  Biso   1.000  O 
  O16      1.0000 0.68300  0.25000  0.97000  Biso   1.000  O 
