data_image0
_cell_length_a       6.28328
_cell_length_b       7.37939
_cell_length_c       7.17081
_cell_angle_alpha    102.859
_cell_angle_beta     107.607
_cell_angle_gamma    93.6126

_symmetry_space_group_name_H-M    "P 1"
_symmetry_int_tables_number       1

loop_
  _symmetry_equiv_pos_as_xyz
  'x, y, z'

loop_
  _atom_site_label
  _atom_site_occupancy
  _atom_site_fract_x
  _atom_site_fract_y
  _atom_site_fract_z
  _atom_site_thermal_displace_type
  _atom_site_B_iso_or_equiv
  _atom_site_type_symbol
  Cl1      1.0000 0.34000  0.30900  0.06210  Biso   1.000  Cl
  Cl2      1.0000 0.18100  0.86200  0.11300  Biso   1.000  Cl
  Cl3      1.0000 0.83200  0.11000  0.32800  Biso   1.000  Cl
  Cl4      1.0000 0.63900  0.72400  0.49300  Biso   1.000  Cl
  Cl5      1.0000 0.36100  0.27600  0.50700  Biso   1.000  Cl
  Cl6      1.0000 0.16800  0.89000  0.67200  Biso   1.000  Cl
  Cl7      1.0000 0.81900  0.13800  0.88700  Biso   1.000  Cl
  Cl8      1.0000 0.66000  0.69100  0.93800  Biso   1.000  Cl
  Mo1      1.0000 0.07490  0.26900  0.21600  Biso   1.000  Mo
  Mo2      1.0000 0.92500  0.73100  0.78400  Biso   1.000  Mo
  O1       1.0000 0.00289  0.48700  0.26100  Biso   1.000  O 
  O2       1.0000 0.99700  0.51300  0.73900  Biso   1.000  O 
