data_image0
_cell_length_a       4.62204
_cell_length_b       5.35116
_cell_length_c       4.62204
_cell_angle_alpha    90
_cell_angle_beta     115.123
_cell_angle_gamma    90

_symmetry_space_group_name_H-M    "P 1"
_symmetry_int_tables_number       1

loop_
  _symmetry_equiv_pos_as_xyz
  'x, y, z'

loop_
  _atom_site_label
  _atom_site_occupancy
  _atom_site_fract_x
  _atom_site_fract_y
  _atom_site_fract_z
  _atom_site_thermal_displace_type
  _atom_site_B_iso_or_equiv
  _atom_site_type_symbol
  Mg1      1.0000 0.63400  0.25000  0.36600  Biso   1.000  Mg
  Mg2      1.0000 0.36600  0.75000  0.63400  Biso   1.000  Mg
  Zn1      1.0000 0.00000  0.00000  0.00000  Biso   1.000  Zn
  Zn2      1.0000 0.00000  0.50000  0.00000  Biso   1.000  Zn
  Zn3      1.0000 0.71000  0.75000  0.29000  Biso   1.000  Zn
  Zn4      1.0000 0.29000  0.25000  0.71000  Biso   1.000  Zn
