data_image0
_cell_length_a       8.13645
_cell_length_b       8.13645
_cell_length_c       8.71274
_cell_angle_alpha    117.835
_cell_angle_beta     62.1649
_cell_angle_gamma    120

_symmetry_space_group_name_H-M    "P 1"
_symmetry_int_tables_number       1

loop_
  _symmetry_equiv_pos_as_xyz
  'x, y, z'

loop_
  _atom_site_label
  _atom_site_occupancy
  _atom_site_fract_x
  _atom_site_fract_y
  _atom_site_fract_z
  _atom_site_thermal_displace_type
  _atom_site_B_iso_or_equiv
  _atom_site_type_symbol
  Fe1      1.0000 0.64300  0.35700  0.07210  Biso   1.000  Fe
  Fe2      1.0000 0.85000  0.15000  0.44900  Biso   1.000  Fe
  Fe3      1.0000 0.15000  0.85000  0.55100  Biso   1.000  Fe
  Fe4      1.0000 0.35700  0.64300  0.92800  Biso   1.000  Fe
  O1       1.0000 0.10600  0.69500  0.07550  Biso   1.000  O 
  O2       1.0000 0.30500  0.48600  0.07550  Biso   1.000  O 
  O3       1.0000 0.51400  0.89400  0.07550  Biso   1.000  O 
  O4       1.0000 0.37400  0.36500  0.23700  Biso   1.000  O 
  O5       1.0000 0.63500  0.24600  0.23700  Biso   1.000  O 
  O6       1.0000 0.75400  0.62600  0.23700  Biso   1.000  O 
  O7       1.0000 0.03880  0.33100  0.29700  Biso   1.000  O 
  O8       1.0000 0.66900  0.00502  0.29700  Biso   1.000  O 
  O9       1.0000 0.99500  0.96100  0.29700  Biso   1.000  O 
  O10      1.0000 0.29000  0.65700  0.39500  Biso   1.000  O 
  O11      1.0000 0.34300  0.02740  0.39500  Biso   1.000  O 
  O12      1.0000 0.97300  0.71000  0.39500  Biso   1.000  O 
  O13      1.0000 0.02740  0.29000  0.60500  Biso   1.000  O 
  O14      1.0000 0.65700  0.97300  0.60500  Biso   1.000  O 
  O15      1.0000 0.71000  0.34300  0.60500  Biso   1.000  O 
  O16      1.0000 0.00502  0.03880  0.70300  Biso   1.000  O 
  O17      1.0000 0.33100  0.99500  0.70300  Biso   1.000  O 
  O18      1.0000 0.96100  0.66900  0.70300  Biso   1.000  O 
  O19      1.0000 0.24600  0.37400  0.76300  Biso   1.000  O 
  O20      1.0000 0.36500  0.75400  0.76300  Biso   1.000  O 
  O21      1.0000 0.62600  0.63500  0.76300  Biso   1.000  O 
  O22      1.0000 0.48600  0.10600  0.92500  Biso   1.000  O 
  O23      1.0000 0.69500  0.51400  0.92500  Biso   1.000  O 
  O24      1.0000 0.89400  0.30500  0.92500  Biso   1.000  O 
  S1       1.0000 0.25100  0.46100  0.25200  Biso   1.000  S 
  S2       1.0000 0.53900  0.04240  0.25200  Biso   1.000  S 
  S3       1.0000 0.95800  0.74900  0.25200  Biso   1.000  S 
  S4       1.0000 0.04240  0.25100  0.74800  Biso   1.000  S 
  S5       1.0000 0.46100  0.95800  0.74800  Biso   1.000  S 
  S6       1.0000 0.74900  0.53900  0.74800  Biso   1.000  S 
