data_image0
_cell_length_a       4.64253
_cell_length_b       5.6958
_cell_length_c       4.94317
_cell_angle_alpha    90
_cell_angle_beta     89.758
_cell_angle_gamma    90

_symmetry_space_group_name_H-M    "P 1"
_symmetry_int_tables_number       1

loop_
  _symmetry_equiv_pos_as_xyz
  'x, y, z'

loop_
  _atom_site_label
  _atom_site_occupancy
  _atom_site_fract_x
  _atom_site_fract_y
  _atom_site_fract_z
  _atom_site_thermal_displace_type
  _atom_site_B_iso_or_equiv
  _atom_site_type_symbol
  Co1      1.0000 0.50000  0.66200  0.25000  Biso   1.000  Co
  Co2      1.0000 0.50000  0.33800  0.75000  Biso   1.000  Co
  O1       1.0000 0.78000  0.89300  0.06960  Biso   1.000  O 
  O2       1.0000 0.74200  0.37800  0.09760  Biso   1.000  O 
  O3       1.0000 0.25800  0.37800  0.40200  Biso   1.000  O 
  O4       1.0000 0.22000  0.89300  0.43000  Biso   1.000  O 
  O5       1.0000 0.78000  0.10700  0.57000  Biso   1.000  O 
  O6       1.0000 0.74200  0.62200  0.59800  Biso   1.000  O 
  O7       1.0000 0.25800  0.62200  0.90200  Biso   1.000  O 
  O8       1.0000 0.22000  0.10700  0.93000  Biso   1.000  O 
  W1       1.0000 0.00000  0.18000  0.25000  Biso   1.000  W 
  W2       1.0000 0.00000  0.82000  0.75000  Biso   1.000  W 
