data_image0
_cell_length_a       4.02479
_cell_length_b       4.02479
_cell_length_c       6.86146
_cell_angle_alpha    90
_cell_angle_beta     90
_cell_angle_gamma    90

_symmetry_space_group_name_H-M    "P 1"
_symmetry_int_tables_number       1

loop_
  _symmetry_equiv_pos_as_xyz
  'x, y, z'

loop_
  _atom_site_label
  _atom_site_occupancy
  _atom_site_fract_x
  _atom_site_fract_y
  _atom_site_fract_z
  _atom_site_thermal_displace_type
  _atom_site_B_iso_or_equiv
  _atom_site_type_symbol
  Cl1      1.0000 0.00000  0.50000  0.37400  Biso   1.000  Cl
  Cl2      1.0000 0.50000  0.00000  0.62600  Biso   1.000  Cl
  O1       1.0000 0.00000  0.00000  0.00000  Biso   1.000  O 
  O2       1.0000 0.50000  0.50000  0.00000  Biso   1.000  O 
  Pu1      1.0000 0.50000  0.00000  0.18000  Biso   1.000  Pu
  Pu2      1.0000 0.00000  0.50000  0.82000  Biso   1.000  Pu
