data_image0
_cell_length_a       4.64022
_cell_length_b       4.63912
_cell_length_c       3.47568
_cell_angle_alpha    90
_cell_angle_beta     96.1638
_cell_angle_gamma    90

_symmetry_space_group_name_H-M    "P 1"
_symmetry_int_tables_number       1

loop_
  _symmetry_equiv_pos_as_xyz
  'x, y, z'

loop_
  _atom_site_label
  _atom_site_occupancy
  _atom_site_fract_x
  _atom_site_fract_y
  _atom_site_fract_z
  _atom_site_thermal_displace_type
  _atom_site_B_iso_or_equiv
  _atom_site_type_symbol
  Cr1      1.0000 0.00000  0.00000  0.00000  Biso   1.000  Cr
  Cr2      1.0000 0.50000  0.50000  0.50000  Biso   1.000  Cr
  F1       1.0000 0.30000  0.30000  0.03830  Biso   1.000  F 
  F2       1.0000 0.20000  0.80000  0.46200  Biso   1.000  F 
  F3       1.0000 0.80000  0.20000  0.53800  Biso   1.000  F 
  F4       1.0000 0.70000  0.70000  0.96200  Biso   1.000  F 
