data_image0
_cell_length_a       8.4357
_cell_length_b       8.42218
_cell_length_c       8.42218
_cell_angle_alpha    99.1815
_cell_angle_beta     117.431
_cell_angle_gamma    62.5687

_symmetry_space_group_name_H-M    "P 1"
_symmetry_int_tables_number       1

loop_
  _symmetry_equiv_pos_as_xyz
  'x, y, z'

loop_
  _atom_site_label
  _atom_site_occupancy
  _atom_site_fract_x
  _atom_site_fract_y
  _atom_site_fract_z
  _atom_site_thermal_displace_type
  _atom_site_B_iso_or_equiv
  _atom_site_type_symbol
  F1       1.0000 0.00000  0.50000  0.00000  Biso   1.000  F 
  F2       1.0000 0.85800  0.27500  0.03560  Biso   1.000  F 
  F3       1.0000 0.45100  0.84000  0.06720  Biso   1.000  F 
  F4       1.0000 0.95100  0.93300  0.16000  Biso   1.000  F 
  F5       1.0000 0.42600  0.40200  0.17300  Biso   1.000  F 
  F6       1.0000 0.89400  0.68200  0.25400  Biso   1.000  F 
  F7       1.0000 0.71700  0.49900  0.25900  Biso   1.000  F 
  F8       1.0000 0.64200  0.03560  0.27500  Biso   1.000  F 
  F9       1.0000 0.39400  0.74600  0.31800  Biso   1.000  F 
  F10      1.0000 0.25000  0.39000  0.39000  Biso   1.000  F 
  F11      1.0000 0.07370  0.17300  0.40200  Biso   1.000  F 
  F12      1.0000 0.78300  0.25900  0.49900  Biso   1.000  F 
  F13      1.0000 0.50000  0.00000  0.50000  Biso   1.000  F 
  F14      1.0000 0.21700  0.74100  0.50100  Biso   1.000  F 
  F15      1.0000 0.92600  0.82700  0.59800  Biso   1.000  F 
  F16      1.0000 0.75000  0.61000  0.61000  Biso   1.000  F 
  F17      1.0000 0.60600  0.25400  0.68200  Biso   1.000  F 
  F18      1.0000 0.35800  0.96400  0.72500  Biso   1.000  F 
  F19      1.0000 0.28300  0.50100  0.74100  Biso   1.000  F 
  F20      1.0000 0.10600  0.31800  0.74600  Biso   1.000  F 
  F21      1.0000 0.57400  0.59800  0.82700  Biso   1.000  F 
  F22      1.0000 0.04910  0.06720  0.84000  Biso   1.000  F 
  F23      1.0000 0.54900  0.16000  0.93300  Biso   1.000  F 
  F24      1.0000 0.14200  0.72500  0.96400  Biso   1.000  F 
  Th1      1.0000 0.75000  0.21100  0.21100  Biso   1.000  Th
  Th2      1.0000 0.17000  0.63200  0.22200  Biso   1.000  Th
  Th3      1.0000 0.67000  0.77800  0.36800  Biso   1.000  Th
  Th4      1.0000 0.33000  0.22200  0.63200  Biso   1.000  Th
  Th5      1.0000 0.83000  0.36800  0.77800  Biso   1.000  Th
  Th6      1.0000 0.25000  0.78900  0.78900  Biso   1.000  Th
