data_image0
_cell_length_a       9.15724
_cell_length_b       9.15178
_cell_length_c       9.11801
_cell_angle_alpha    90
_cell_angle_beta     90
_cell_angle_gamma    90

_symmetry_space_group_name_H-M    "P 1"
_symmetry_int_tables_number       1

loop_
  _symmetry_equiv_pos_as_xyz
  'x, y, z'

loop_
  _atom_site_label
  _atom_site_occupancy
  _atom_site_fract_x
  _atom_site_fract_y
  _atom_site_fract_z
  _atom_site_thermal_displace_type
  _atom_site_B_iso_or_equiv
  _atom_site_type_symbol
  Fe1      1.0000 0.11500  0.14600  0.11800  Biso   1.000  Fe
  Fe2      1.0000 0.38500  0.64600  0.11800  Biso   1.000  Fe
  Fe3      1.0000 0.61500  0.14600  0.38200  Biso   1.000  Fe
  Fe4      1.0000 0.88500  0.64600  0.38200  Biso   1.000  Fe
  Fe5      1.0000 0.11500  0.35400  0.61800  Biso   1.000  Fe
  Fe6      1.0000 0.38500  0.85400  0.61800  Biso   1.000  Fe
  Fe7      1.0000 0.61500  0.35400  0.88200  Biso   1.000  Fe
  Fe8      1.0000 0.88500  0.85400  0.88200  Biso   1.000  Fe
  Li1      1.0000 0.65600  0.11800  0.10400  Biso   1.000  Li
  Li2      1.0000 0.84400  0.61800  0.10400  Biso   1.000  Li
  Li3      1.0000 0.35300  0.37200  0.10700  Biso   1.000  Li
  Li4      1.0000 0.14700  0.87200  0.10700  Biso   1.000  Li
  Li5      1.0000 0.88100  0.35300  0.12400  Biso   1.000  Li
  Li6      1.0000 0.61900  0.85300  0.12400  Biso   1.000  Li
  Li7      1.0000 0.39200  0.11000  0.14300  Biso   1.000  Li
  Li8      1.0000 0.10800  0.61000  0.14300  Biso   1.000  Li
  Li9      1.0000 0.61900  0.39000  0.16200  Biso   1.000  Li
  Li10     1.0000 0.88100  0.89000  0.16200  Biso   1.000  Li
  Li11     1.0000 0.11900  0.39000  0.33800  Biso   1.000  Li
  Li12     1.0000 0.38100  0.89000  0.33800  Biso   1.000  Li
  Li13     1.0000 0.89200  0.11000  0.35700  Biso   1.000  Li
  Li14     1.0000 0.60800  0.61000  0.35700  Biso   1.000  Li
  Li15     1.0000 0.38100  0.35300  0.37600  Biso   1.000  Li
  Li16     1.0000 0.11900  0.85300  0.37600  Biso   1.000  Li
  Li17     1.0000 0.85300  0.37200  0.39300  Biso   1.000  Li
  Li18     1.0000 0.64700  0.87200  0.39300  Biso   1.000  Li
  Li19     1.0000 0.15600  0.11800  0.39600  Biso   1.000  Li
  Li20     1.0000 0.34400  0.61800  0.39600  Biso   1.000  Li
  Li21     1.0000 0.65600  0.38200  0.60400  Biso   1.000  Li
  Li22     1.0000 0.84400  0.88200  0.60400  Biso   1.000  Li
  Li23     1.0000 0.35300  0.12800  0.60700  Biso   1.000  Li
  Li24     1.0000 0.14700  0.62800  0.60700  Biso   1.000  Li
  Li25     1.0000 0.88100  0.14700  0.62400  Biso   1.000  Li
  Li26     1.0000 0.61900  0.64700  0.62400  Biso   1.000  Li
  Li27     1.0000 0.39200  0.39000  0.64300  Biso   1.000  Li
  Li28     1.0000 0.10800  0.89000  0.64300  Biso   1.000  Li
  Li29     1.0000 0.61900  0.11000  0.66200  Biso   1.000  Li
  Li30     1.0000 0.88100  0.61000  0.66200  Biso   1.000  Li
  Li31     1.0000 0.11900  0.11000  0.83800  Biso   1.000  Li
  Li32     1.0000 0.38100  0.61000  0.83800  Biso   1.000  Li
  Li33     1.0000 0.89200  0.39000  0.85700  Biso   1.000  Li
  Li34     1.0000 0.60800  0.89000  0.85700  Biso   1.000  Li
  Li35     1.0000 0.38100  0.14700  0.87600  Biso   1.000  Li
  Li36     1.0000 0.11900  0.64700  0.87600  Biso   1.000  Li
  Li37     1.0000 0.85300  0.12800  0.89300  Biso   1.000  Li
  Li38     1.0000 0.64700  0.62800  0.89300  Biso   1.000  Li
  Li39     1.0000 0.15600  0.38200  0.89600  Biso   1.000  Li
  Li40     1.0000 0.34400  0.88200  0.89600  Biso   1.000  Li
  O1       1.0000 0.74300  0.46900  0.99900  Biso   1.000  O 
  O2       1.0000 0.75700  0.96900  0.99900  Biso   1.000  O 
  O3       1.0000 0.24300  0.03140  0.00090  Biso   1.000  O 
  O4       1.0000 0.25700  0.53100  0.00090  Biso   1.000  O 
  O5       1.0000 0.50400  0.24800  0.01760  Biso   1.000  O 
  O6       1.0000 0.99600  0.74800  0.01760  Biso   1.000  O 
  O7       1.0000 0.24700  0.24700  0.24200  Biso   1.000  O 
  O8       1.0000 0.25300  0.74700  0.24200  Biso   1.000  O 
  O9       1.0000 0.03320  0.00452  0.24600  Biso   1.000  O 
  O10      1.0000 0.46700  0.50500  0.24600  Biso   1.000  O 
  O11      1.0000 0.53300  0.00452  0.25400  Biso   1.000  O 
  O12      1.0000 0.96700  0.50500  0.25400  Biso   1.000  O 
  O13      1.0000 0.74700  0.24700  0.25800  Biso   1.000  O 
  O14      1.0000 0.75300  0.74700  0.25800  Biso   1.000  O 
  O15      1.0000 0.00400  0.24800  0.48200  Biso   1.000  O 
  O16      1.0000 0.49600  0.74800  0.48200  Biso   1.000  O 
  O17      1.0000 0.74300  0.03140  0.49900  Biso   1.000  O 
  O18      1.0000 0.75700  0.53100  0.49900  Biso   1.000  O 
  O19      1.0000 0.24300  0.46900  0.50100  Biso   1.000  O 
  O20      1.0000 0.25700  0.96900  0.50100  Biso   1.000  O 
  O21      1.0000 0.50400  0.25200  0.51800  Biso   1.000  O 
  O22      1.0000 0.99600  0.75200  0.51800  Biso   1.000  O 
  O23      1.0000 0.24700  0.25300  0.74200  Biso   1.000  O 
  O24      1.0000 0.25300  0.75300  0.74200  Biso   1.000  O 
  O25      1.0000 0.03320  0.49500  0.74600  Biso   1.000  O 
  O26      1.0000 0.46700  0.99500  0.74600  Biso   1.000  O 
  O27      1.0000 0.53300  0.49500  0.75400  Biso   1.000  O 
  O28      1.0000 0.96700  0.99500  0.75400  Biso   1.000  O 
  O29      1.0000 0.74700  0.25300  0.75800  Biso   1.000  O 
  O30      1.0000 0.75300  0.75300  0.75800  Biso   1.000  O 
  O31      1.0000 0.00400  0.25200  0.98200  Biso   1.000  O 
  O32      1.0000 0.49600  0.75200  0.98200  Biso   1.000  O 
