data_image0
_cell_length_a       7.60859
_cell_length_b       7.60859
_cell_length_c       7.83782
_cell_angle_alpha    90
_cell_angle_beta     90
_cell_angle_gamma    112.149

_symmetry_space_group_name_H-M    "P 1"
_symmetry_int_tables_number       1

loop_
  _symmetry_equiv_pos_as_xyz
  'x, y, z'

loop_
  _atom_site_label
  _atom_site_occupancy
  _atom_site_fract_x
  _atom_site_fract_y
  _atom_site_fract_z
  _atom_site_thermal_displace_type
  _atom_site_B_iso_or_equiv
  _atom_site_type_symbol
  Ba1      1.0000 0.00000  0.00000  0.00000  Biso   1.000  Ba
  Ba2      1.0000 0.83600  0.16400  0.50000  Biso   1.000  Ba
  Ba3      1.0000 0.16400  0.83600  0.50000  Biso   1.000  Ba
  O1       1.0000 0.14400  0.40600  0.06300  Biso   1.000  O 
  O2       1.0000 0.85600  0.59400  0.06300  Biso   1.000  O 
  O3       1.0000 0.68400  0.13600  0.18200  Biso   1.000  O 
  O4       1.0000 0.31600  0.86400  0.18200  Biso   1.000  O 
  O5       1.0000 0.50000  0.50000  0.25900  Biso   1.000  O 
  O6       1.0000 0.16700  0.16000  0.30500  Biso   1.000  O 
  O7       1.0000 0.83300  0.84000  0.30500  Biso   1.000  O 
  O8       1.0000 0.16700  0.48700  0.42600  Biso   1.000  O 
  O9       1.0000 0.83300  0.51300  0.42600  Biso   1.000  O 
  O10      1.0000 0.48700  0.16700  0.57400  Biso   1.000  O 
  O11      1.0000 0.51300  0.83300  0.57400  Biso   1.000  O 
  O12      1.0000 0.16000  0.16700  0.69500  Biso   1.000  O 
  O13      1.0000 0.84000  0.83300  0.69500  Biso   1.000  O 
  O14      1.0000 0.50000  0.50000  0.74100  Biso   1.000  O 
  O15      1.0000 0.86400  0.31600  0.81800  Biso   1.000  O 
  O16      1.0000 0.13600  0.68400  0.81800  Biso   1.000  O 
  O17      1.0000 0.40600  0.14400  0.93700  Biso   1.000  O 
  O18      1.0000 0.59400  0.85600  0.93700  Biso   1.000  O 
  V1       1.0000 0.50000  0.00000  0.06340  Biso   1.000  V 
  V2       1.0000 0.25000  0.39500  0.26800  Biso   1.000  V 
  V3       1.0000 0.75000  0.60500  0.26800  Biso   1.000  V 
  V4       1.0000 0.39500  0.25000  0.73200  Biso   1.000  V 
  V5       1.0000 0.60500  0.75000  0.73200  Biso   1.000  V 
  V6       1.0000 0.00000  0.50000  0.93700  Biso   1.000  V 
