data_image0
_cell_length_a       5.96713
_cell_length_b       5.96713
_cell_length_c       8.38336
_cell_angle_alpha    90
_cell_angle_beta     90
_cell_angle_gamma    90

_symmetry_space_group_name_H-M    "P 1"
_symmetry_int_tables_number       1

loop_
  _symmetry_equiv_pos_as_xyz
  'x, y, z'

loop_
  _atom_site_label
  _atom_site_occupancy
  _atom_site_fract_x
  _atom_site_fract_y
  _atom_site_fract_z
  _atom_site_thermal_displace_type
  _atom_site_B_iso_or_equiv
  _atom_site_type_symbol
  Mg1      1.0000 0.00000  0.24800  0.00000  Biso   1.000  Mg
  Mg2      1.0000 0.25200  0.74800  0.12500  Biso   1.000  Mg
  Mg3      1.0000 0.75200  0.00000  0.25000  Biso   1.000  Mg
  Mg4      1.0000 0.25200  0.25200  0.37500  Biso   1.000  Mg
  Mg5      1.0000 0.00000  0.75200  0.50000  Biso   1.000  Mg
  Mg6      1.0000 0.74800  0.25200  0.62500  Biso   1.000  Mg
  Mg7      1.0000 0.24800  0.00000  0.75000  Biso   1.000  Mg
  Mg8      1.0000 0.74800  0.74800  0.87500  Biso   1.000  Mg
  O1       1.0000 0.74000  0.02440  0.00276  Biso   1.000  O 
  O2       1.0000 0.74000  0.48300  0.01490  Biso   1.000  O 
  O3       1.0000 0.51700  0.26000  0.23500  Biso   1.000  O 
  O4       1.0000 0.97600  0.26000  0.24700  Biso   1.000  O 
  O5       1.0000 0.97600  0.74000  0.25300  Biso   1.000  O 
  O6       1.0000 0.51700  0.74000  0.26500  Biso   1.000  O 
  O7       1.0000 0.74000  0.51700  0.48500  Biso   1.000  O 
  O8       1.0000 0.74000  0.97600  0.49700  Biso   1.000  O 
  O9       1.0000 0.26000  0.97600  0.50300  Biso   1.000  O 
  O10      1.0000 0.26000  0.51700  0.51500  Biso   1.000  O 
  O11      1.0000 0.48300  0.74000  0.73500  Biso   1.000  O 
  O12      1.0000 0.02440  0.74000  0.74700  Biso   1.000  O 
  O13      1.0000 0.02440  0.26000  0.75300  Biso   1.000  O 
  O14      1.0000 0.48300  0.26000  0.76500  Biso   1.000  O 
  O15      1.0000 0.26000  0.48300  0.98500  Biso   1.000  O 
  O16      1.0000 0.26000  0.02440  0.99700  Biso   1.000  O 
  Ti1      1.0000 0.50000  0.23700  0.00000  Biso   1.000  Ti
  Ti2      1.0000 0.76300  0.50000  0.25000  Biso   1.000  Ti
  Ti3      1.0000 0.50000  0.76300  0.50000  Biso   1.000  Ti
  Ti4      1.0000 0.23700  0.50000  0.75000  Biso   1.000  Ti
