data_image0
_cell_length_a       6.86377
_cell_length_b       6.58513
_cell_length_c       6.94227
_cell_angle_alpha    96.5195
_cell_angle_beta     103.925
_cell_angle_gamma    88.5124

_symmetry_space_group_name_H-M    "P 1"
_symmetry_int_tables_number       1

loop_
  _symmetry_equiv_pos_as_xyz
  'x, y, z'

loop_
  _atom_site_label
  _atom_site_occupancy
  _atom_site_fract_x
  _atom_site_fract_y
  _atom_site_fract_z
  _atom_site_thermal_displace_type
  _atom_site_B_iso_or_equiv
  _atom_site_type_symbol
  Ca1      1.0000 0.29100  0.43500  0.27000  Biso   1.000  Ca
  Ca2      1.0000 0.83800  0.16300  0.33300  Biso   1.000  Ca
  Ca3      1.0000 0.18400  0.83200  0.66500  Biso   1.000  Ca
  Ca4      1.0000 0.70100  0.56500  0.72500  Biso   1.000  Ca
  H1       1.0000 0.53600  0.74600  0.04820  Biso   1.000  H 
  H2       1.0000 0.53300  0.12300  0.46500  Biso   1.000  H 
  H3       1.0000 0.47000  0.26100  0.95700  Biso   1.000  H 
  H4       1.0000 0.99300  0.00080  0.98300  Biso   1.000  H 
  O1       1.0000 0.33800  0.84100  0.01790  Biso   1.000  O 
  O2       1.0000 0.67500  0.66900  0.06030  Biso   1.000  O 
  O3       1.0000 0.10200  0.07790  0.16600  Biso   1.000  O 
  O4       1.0000 0.96000  0.47600  0.25200  Biso   1.000  O 
  O5       1.0000 0.46500  0.10200  0.31200  Biso   1.000  O 
  O6       1.0000 0.27500  0.78300  0.35100  Biso   1.000  O 
  O7       1.0000 0.64500  0.50300  0.36700  Biso   1.000  O 
  O8       1.0000 0.85900  0.82300  0.40800  Biso   1.000  O 
  O9       1.0000 0.13600  0.17300  0.59900  Biso   1.000  O 
  O10      1.0000 0.35000  0.48800  0.63100  Biso   1.000  O 
  O11      1.0000 0.69000  0.20000  0.63700  Biso   1.000  O 
  O12      1.0000 0.53800  0.88300  0.71000  Biso   1.000  O 
  O13      1.0000 0.03690  0.52200  0.75300  Biso   1.000  O 
  O14      1.0000 0.90500  0.93900  0.83800  Biso   1.000  O 
  O15      1.0000 0.32700  0.33100  0.94400  Biso   1.000  O 
  O16      1.0000 0.66900  0.17200  0.98900  Biso   1.000  O 
  P1       1.0000 0.29000  0.93900  0.21200  Biso   1.000  P 
  P2       1.0000 0.79000  0.62200  0.28000  Biso   1.000  P 
  P3       1.0000 0.20700  0.37600  0.72500  Biso   1.000  P 
  P4       1.0000 0.69400  0.05010  0.79400  Biso   1.000  P 
