data_image0
_cell_length_a       2.61867
_cell_length_b       4.39777
_cell_length_c       6.93005
_cell_angle_alpha    108.5
_cell_angle_beta     100.891
_cell_angle_gamma    90

_symmetry_space_group_name_H-M    "P 1"
_symmetry_int_tables_number       1

loop_
  _symmetry_equiv_pos_as_xyz
  'x, y, z'

loop_
  _atom_site_label
  _atom_site_occupancy
  _atom_site_fract_x
  _atom_site_fract_y
  _atom_site_fract_z
  _atom_site_thermal_displace_type
  _atom_site_B_iso_or_equiv
  _atom_site_type_symbol
  N1       1.0000 0.50000  0.48900  0.00000  Biso   1.000  N 
  N2       1.0000 0.10400  0.02130  0.20800  Biso   1.000  N 
  N3       1.0000 0.22300  0.50000  0.44700  Biso   1.000  N 
  N4       1.0000 0.77700  0.05370  0.55300  Biso   1.000  N 
  N5       1.0000 0.89600  0.81400  0.79200  Biso   1.000  N 
  P1       1.0000 0.00000  0.69100  0.00000  Biso   1.000  P 
  P2       1.0000 0.68200  0.22900  0.36300  Biso   1.000  P 
  P3       1.0000 0.31800  0.86600  0.63700  Biso   1.000  P 
