data_image0
_cell_length_a       13.4649
_cell_length_b       7.07766
_cell_length_c       5.39182
_cell_angle_alpha    90
_cell_angle_beta     90
_cell_angle_gamma    90

_symmetry_space_group_name_H-M    "P 1"
_symmetry_int_tables_number       1

loop_
  _symmetry_equiv_pos_as_xyz
  'x, y, z'

loop_
  _atom_site_label
  _atom_site_occupancy
  _atom_site_fract_x
  _atom_site_fract_y
  _atom_site_fract_z
  _atom_site_thermal_displace_type
  _atom_site_B_iso_or_equiv
  _atom_site_type_symbol
  O1       1.0000 0.00000  0.00000  0.00000  Biso   1.000  O 
  O2       1.0000 0.50000  0.50000  0.00000  Biso   1.000  O 
  O3       1.0000 0.91300  0.37300  0.04330  Biso   1.000  O 
  O4       1.0000 0.58700  0.87300  0.04330  Biso   1.000  O 
  O5       1.0000 0.28300  0.44100  0.06260  Biso   1.000  O 
  O6       1.0000 0.21700  0.94100  0.06260  Biso   1.000  O 
  O7       1.0000 0.62500  0.24200  0.19200  Biso   1.000  O 
  O8       1.0000 0.87500  0.74200  0.19200  Biso   1.000  O 
  O9       1.0000 0.12500  0.24200  0.30800  Biso   1.000  O 
  O10      1.0000 0.37500  0.74200  0.30800  Biso   1.000  O 
  O11      1.0000 0.78300  0.44100  0.43700  Biso   1.000  O 
  O12      1.0000 0.71700  0.94100  0.43700  Biso   1.000  O 
  O13      1.0000 0.41300  0.37300  0.45700  Biso   1.000  O 
  O14      1.0000 0.08730  0.87300  0.45700  Biso   1.000  O 
  O15      1.0000 0.50000  0.00000  0.50000  Biso   1.000  O 
  O16      1.0000 0.00000  0.50000  0.50000  Biso   1.000  O 
  O17      1.0000 0.91300  0.12700  0.54300  Biso   1.000  O 
  O18      1.0000 0.58700  0.62700  0.54300  Biso   1.000  O 
  O19      1.0000 0.28300  0.05920  0.56300  Biso   1.000  O 
  O20      1.0000 0.21700  0.55900  0.56300  Biso   1.000  O 
  O21      1.0000 0.62500  0.25800  0.69200  Biso   1.000  O 
  O22      1.0000 0.87500  0.75800  0.69200  Biso   1.000  O 
  O23      1.0000 0.12500  0.25800  0.80800  Biso   1.000  O 
  O24      1.0000 0.37500  0.75800  0.80800  Biso   1.000  O 
  O25      1.0000 0.78300  0.05920  0.93700  Biso   1.000  O 
  O26      1.0000 0.71700  0.55900  0.93700  Biso   1.000  O 
  O27      1.0000 0.41300  0.12700  0.95700  Biso   1.000  O 
  O28      1.0000 0.08730  0.62700  0.95700  Biso   1.000  O 
  Tc1      1.0000 0.11000  0.01480  0.20500  Biso   1.000  Tc
  Tc2      1.0000 0.39000  0.51500  0.20500  Biso   1.000  Tc
  Tc3      1.0000 0.61000  0.01480  0.29500  Biso   1.000  Tc
  Tc4      1.0000 0.89000  0.51500  0.29500  Biso   1.000  Tc
  Tc5      1.0000 0.11000  0.48500  0.70500  Biso   1.000  Tc
  Tc6      1.0000 0.39000  0.98500  0.70500  Biso   1.000  Tc
  Tc7      1.0000 0.61000  0.48500  0.79500  Biso   1.000  Tc
  Tc8      1.0000 0.89000  0.98500  0.79500  Biso   1.000  Tc
