data_image0
_cell_length_a       4.28753
_cell_length_b       7.27245
_cell_length_c       8.64783
_cell_angle_alpha    90
_cell_angle_beta     90
_cell_angle_gamma    90

_symmetry_space_group_name_H-M    "P 1"
_symmetry_int_tables_number       1

loop_
  _symmetry_equiv_pos_as_xyz
  'x, y, z'

loop_
  _atom_site_label
  _atom_site_occupancy
  _atom_site_fract_x
  _atom_site_fract_y
  _atom_site_fract_z
  _atom_site_thermal_displace_type
  _atom_site_B_iso_or_equiv
  _atom_site_type_symbol
  S1       1.0000 0.75000  0.13900  0.07020  Biso   1.000  S 
  S2       1.0000 0.25000  0.47200  0.16500  Biso   1.000  S 
  S3       1.0000 0.25000  0.97200  0.33500  Biso   1.000  S 
  S4       1.0000 0.75000  0.63900  0.43000  Biso   1.000  S 
  S5       1.0000 0.25000  0.36100  0.57000  Biso   1.000  S 
  S6       1.0000 0.75000  0.02820  0.66500  Biso   1.000  S 
  S7       1.0000 0.75000  0.52800  0.83500  Biso   1.000  S 
  S8       1.0000 0.25000  0.86100  0.93000  Biso   1.000  S 
  Th1      1.0000 0.75000  0.75000  0.11900  Biso   1.000  Th
  Th2      1.0000 0.75000  0.25000  0.38100  Biso   1.000  Th
  Th3      1.0000 0.25000  0.75000  0.61900  Biso   1.000  Th
  Th4      1.0000 0.25000  0.25000  0.88100  Biso   1.000  Th
