data_image0
_cell_length_a       6.59308
_cell_length_b       7.36914
_cell_length_c       4.81788
_cell_angle_alpha    90
_cell_angle_beta     90
_cell_angle_gamma    90

_symmetry_space_group_name_H-M    "P 1"
_symmetry_int_tables_number       1

loop_
  _symmetry_equiv_pos_as_xyz
  'x, y, z'

loop_
  _atom_site_label
  _atom_site_occupancy
  _atom_site_fract_x
  _atom_site_fract_y
  _atom_site_fract_z
  _atom_site_thermal_displace_type
  _atom_site_B_iso_or_equiv
  _atom_site_type_symbol
  Al1      1.0000 0.99300  0.75000  0.08400  Biso   1.000  Al
  Al2      1.0000 0.67100  0.05480  0.13700  Biso   1.000  Al
  Al3      1.0000 0.67100  0.44500  0.13700  Biso   1.000  Al
  Al4      1.0000 0.17100  0.05480  0.36300  Biso   1.000  Al
  Al5      1.0000 0.17100  0.44500  0.36300  Biso   1.000  Al
  Al6      1.0000 0.49300  0.75000  0.41600  Biso   1.000  Al
  Al7      1.0000 0.50700  0.25000  0.58400  Biso   1.000  Al
  Al8      1.0000 0.82900  0.55500  0.63700  Biso   1.000  Al
  Al9      1.0000 0.82900  0.94500  0.63700  Biso   1.000  Al
  Al10     1.0000 0.32900  0.55500  0.86300  Biso   1.000  Al
  Al11     1.0000 0.32900  0.94500  0.86300  Biso   1.000  Al
  Al12     1.0000 0.00703  0.25000  0.91600  Biso   1.000  Al
  Ni1      1.0000 0.37000  0.25000  0.05700  Biso   1.000  Ni
  Ni2      1.0000 0.87000  0.25000  0.44300  Biso   1.000  Ni
  Ni3      1.0000 0.13000  0.75000  0.55700  Biso   1.000  Ni
  Ni4      1.0000 0.63000  0.75000  0.94300  Biso   1.000  Ni
