data_image0
_cell_length_a       3.50684
_cell_length_b       4.94011
_cell_length_c       9.11861
_cell_angle_alpha    90
_cell_angle_beta     90
_cell_angle_gamma    69.2105

_symmetry_space_group_name_H-M    "P 1"
_symmetry_int_tables_number       1

loop_
  _symmetry_equiv_pos_as_xyz
  'x, y, z'

loop_
  _atom_site_label
  _atom_site_occupancy
  _atom_site_fract_x
  _atom_site_fract_y
  _atom_site_fract_z
  _atom_site_thermal_displace_type
  _atom_site_B_iso_or_equiv
  _atom_site_type_symbol
  Al1      1.0000 0.13500  0.73000  0.06710  Biso   1.000  Al
  Al2      1.0000 0.13500  0.73000  0.43300  Biso   1.000  Al
  Al3      1.0000 0.86500  0.27000  0.56700  Biso   1.000  Al
  Al4      1.0000 0.86500  0.27000  0.93300  Biso   1.000  Al
  O1       1.0000 0.68700  0.62500  0.08970  Biso   1.000  O 
  O2       1.0000 0.94600  0.10900  0.11800  Biso   1.000  O 
  O3       1.0000 0.26100  0.47700  0.25000  Biso   1.000  O 
  O4       1.0000 0.94600  0.10900  0.38200  Biso   1.000  O 
  O5       1.0000 0.68700  0.62500  0.41000  Biso   1.000  O 
  O6       1.0000 0.31300  0.37500  0.59000  Biso   1.000  O 
  O7       1.0000 0.05450  0.89100  0.61800  Biso   1.000  O 
  O8       1.0000 0.73900  0.52300  0.75000  Biso   1.000  O 
  O9       1.0000 0.05450  0.89100  0.88200  Biso   1.000  O 
  O10      1.0000 0.31300  0.37500  0.91000  Biso   1.000  O 
  Si1      1.0000 0.81700  0.36600  0.25000  Biso   1.000  Si
  Si2      1.0000 0.18300  0.63400  0.75000  Biso   1.000  Si
