data_image0
_cell_length_a       4.64801
_cell_length_b       4.64801
_cell_length_c       6.951
_cell_angle_alpha    90
_cell_angle_beta     90
_cell_angle_gamma    83.5659

_symmetry_space_group_name_H-M    "P 1"
_symmetry_int_tables_number       1

loop_
  _symmetry_equiv_pos_as_xyz
  'x, y, z'

loop_
  _atom_site_label
  _atom_site_occupancy
  _atom_site_fract_x
  _atom_site_fract_y
  _atom_site_fract_z
  _atom_site_thermal_displace_type
  _atom_site_B_iso_or_equiv
  _atom_site_type_symbol
  Ca1      1.0000 0.34800  0.65200  0.25000  Biso   1.000  Ca
  Ca2      1.0000 0.65200  0.34800  0.75000  Biso   1.000  Ca
  O1       1.0000 0.70100  0.29900  0.07950  Biso   1.000  O 
  O2       1.0000 0.15900  0.18600  0.25000  Biso   1.000  O 
  O3       1.0000 0.81400  0.84100  0.25000  Biso   1.000  O 
  O4       1.0000 0.70100  0.29900  0.42100  Biso   1.000  O 
  O5       1.0000 0.29900  0.70100  0.57900  Biso   1.000  O 
  O6       1.0000 0.18600  0.15900  0.75000  Biso   1.000  O 
  O7       1.0000 0.84100  0.81400  0.75000  Biso   1.000  O 
  O8       1.0000 0.29900  0.70100  0.92100  Biso   1.000  O 
  S1       1.0000 0.84500  0.15500  0.25000  Biso   1.000  S 
  S2       1.0000 0.15500  0.84500  0.75000  Biso   1.000  S 
