data_image0
_cell_length_a       7.24015
_cell_length_b       7.24015
_cell_length_c       7.48056
_cell_angle_alpha    90
_cell_angle_beta     90
_cell_angle_gamma    113.937

_symmetry_space_group_name_H-M    "P 1"
_symmetry_int_tables_number       1

loop_
  _symmetry_equiv_pos_as_xyz
  'x, y, z'

loop_
  _atom_site_label
  _atom_site_occupancy
  _atom_site_fract_x
  _atom_site_fract_y
  _atom_site_fract_z
  _atom_site_thermal_displace_type
  _atom_site_B_iso_or_equiv
  _atom_site_type_symbol
  Ca1      1.0000 0.00000  0.00000  0.00000  Biso   1.000  Ca
  Ca2      1.0000 0.80100  0.19900  0.50000  Biso   1.000  Ca
  Ca3      1.0000 0.19900  0.80100  0.50000  Biso   1.000  Ca
  O1       1.0000 0.09540  0.35300  0.05350  Biso   1.000  O 
  O2       1.0000 0.90500  0.64700  0.05350  Biso   1.000  O 
  O3       1.0000 0.66600  0.18300  0.21200  Biso   1.000  O 
  O4       1.0000 0.33400  0.81700  0.21200  Biso   1.000  O 
  O5       1.0000 0.50000  0.50000  0.22000  Biso   1.000  O 
  O6       1.0000 0.18500  0.12200  0.28900  Biso   1.000  O 
  O7       1.0000 0.81500  0.87800  0.28900  Biso   1.000  O 
  O8       1.0000 0.14900  0.44900  0.43300  Biso   1.000  O 
  O9       1.0000 0.85100  0.55100  0.43300  Biso   1.000  O 
  O10      1.0000 0.44900  0.14900  0.56700  Biso   1.000  O 
  O11      1.0000 0.55100  0.85100  0.56700  Biso   1.000  O 
  O12      1.0000 0.12200  0.18500  0.71100  Biso   1.000  O 
  O13      1.0000 0.87800  0.81500  0.71100  Biso   1.000  O 
  O14      1.0000 0.50000  0.50000  0.78000  Biso   1.000  O 
  O15      1.0000 0.81700  0.33400  0.78800  Biso   1.000  O 
  O16      1.0000 0.18300  0.66600  0.78800  Biso   1.000  O 
  O17      1.0000 0.35300  0.09540  0.94700  Biso   1.000  O 
  O18      1.0000 0.64700  0.90500  0.94700  Biso   1.000  O 
  V1       1.0000 0.50000  0.00000  0.08750  Biso   1.000  V 
  V2       1.0000 0.23800  0.36700  0.25700  Biso   1.000  V 
  V3       1.0000 0.76200  0.63300  0.25700  Biso   1.000  V 
  V4       1.0000 0.36700  0.23800  0.74300  Biso   1.000  V 
  V5       1.0000 0.63300  0.76200  0.74300  Biso   1.000  V 
  V6       1.0000 0.00000  0.50000  0.91200  Biso   1.000  V 
