data_image0
_cell_length_a       3.76945
_cell_length_b       3.77521
_cell_length_c       5.32704
_cell_angle_alpha    69.2467
_cell_angle_beta     90
_cell_angle_gamma    90

_symmetry_space_group_name_H-M    "P 1"
_symmetry_int_tables_number       1

loop_
  _symmetry_equiv_pos_as_xyz
  'x, y, z'

loop_
  _atom_site_label
  _atom_site_occupancy
  _atom_site_fract_x
  _atom_site_fract_y
  _atom_site_fract_z
  _atom_site_thermal_displace_type
  _atom_site_B_iso_or_equiv
  _atom_site_type_symbol
  Si1      1.0000 0.75000  0.42200  0.15700  Biso   1.000  Si
  Si2      1.0000 0.25000  0.57800  0.84300  Biso   1.000  Si
  Zr1      1.0000 0.25000  0.85500  0.29000  Biso   1.000  Zr
  Zr2      1.0000 0.75000  0.14500  0.71000  Biso   1.000  Zr
