data_image0
_cell_length_a       5.10555
_cell_length_b       5.10555
_cell_length_c       6.85683
_cell_angle_alpha    111.857
_cell_angle_beta     111.857
_cell_angle_gamma    90

_symmetry_space_group_name_H-M    "P 1"
_symmetry_int_tables_number       1

loop_
  _symmetry_equiv_pos_as_xyz
  'x, y, z'

loop_
  _atom_site_label
  _atom_site_occupancy
  _atom_site_fract_x
  _atom_site_fract_y
  _atom_site_fract_z
  _atom_site_thermal_displace_type
  _atom_site_B_iso_or_equiv
  _atom_site_type_symbol
  As1      1.0000 0.00000  0.00000  0.00000  Biso   1.000  As
  As2      1.0000 0.25000  0.75000  0.50000  Biso   1.000  As
  Bi1      1.0000 0.50000  0.50000  0.00000  Biso   1.000  Bi
  Bi2      1.0000 0.75000  0.25000  0.50000  Biso   1.000  Bi
  O1       1.0000 0.32600  0.22400  0.15800  Biso   1.000  O 
  O2       1.0000 0.83200  0.93400  0.15800  Biso   1.000  O 
  O3       1.0000 0.92400  0.52600  0.34200  Biso   1.000  O 
  O4       1.0000 0.41800  0.81600  0.34200  Biso   1.000  O 
  O5       1.0000 0.18400  0.07560  0.65800  Biso   1.000  O 
  O6       1.0000 0.47400  0.58200  0.65800  Biso   1.000  O 
  O7       1.0000 0.77600  0.16800  0.84200  Biso   1.000  O 
  O8       1.0000 0.06570  0.67400  0.84200  Biso   1.000  O 
