data_image0
_cell_length_a       5.3989
_cell_length_b       5.3989
_cell_length_c       7.07256
_cell_angle_alpha    112.438
_cell_angle_beta     112.438
_cell_angle_gamma    90

_symmetry_space_group_name_H-M    "P 1"
_symmetry_int_tables_number       1

loop_
  _symmetry_equiv_pos_as_xyz
  'x, y, z'

loop_
  _atom_site_label
  _atom_site_occupancy
  _atom_site_fract_x
  _atom_site_fract_y
  _atom_site_fract_z
  _atom_site_thermal_displace_type
  _atom_site_B_iso_or_equiv
  _atom_site_type_symbol
  O1       1.0000 0.32300  0.22500  0.16700  Biso   1.000  O 
  O2       1.0000 0.84400  0.94100  0.16700  Biso   1.000  O 
  O3       1.0000 0.92700  0.52500  0.33300  Biso   1.000  O 
  O4       1.0000 0.40600  0.80900  0.33300  Biso   1.000  O 
  O5       1.0000 0.19100  0.07280  0.66700  Biso   1.000  O 
  O6       1.0000 0.47500  0.59400  0.66700  Biso   1.000  O 
  O7       1.0000 0.77500  0.15600  0.83300  Biso   1.000  O 
  O8       1.0000 0.05850  0.67700  0.83300  Biso   1.000  O 
  Sr1      1.0000 0.50000  0.50000  0.00000  Biso   1.000  Sr
  Sr2      1.0000 0.75000  0.25000  0.50000  Biso   1.000  Sr
  W1       1.0000 0.00000  0.00000  0.00000  Biso   1.000  W 
  W2       1.0000 0.25000  0.75000  0.50000  Biso   1.000  W 
