data_image0
_cell_length_a       8.98648
_cell_length_b       8.98648
_cell_length_c       8.98648
_cell_angle_alpha    115.466
_cell_angle_beta     98.0511
_cell_angle_gamma    115.466

_symmetry_space_group_name_H-M    "P 1"
_symmetry_int_tables_number       1

loop_
  _symmetry_equiv_pos_as_xyz
  'x, y, z'

loop_
  _atom_site_label
  _atom_site_occupancy
  _atom_site_fract_x
  _atom_site_fract_y
  _atom_site_fract_z
  _atom_site_thermal_displace_type
  _atom_site_B_iso_or_equiv
  _atom_site_type_symbol
  Na1      1.0000 0.12500  0.52500  0.15000  Biso   1.000  Na
  Na2      1.0000 0.17000  0.00000  0.17000  Biso   1.000  Na
  Na3      1.0000 0.85000  0.97500  0.37500  Biso   1.000  Na
  Na4      1.0000 0.08030  0.50000  0.58000  Biso   1.000  Na
  Na5      1.0000 0.62500  0.47500  0.60000  Biso   1.000  Na
  Na6      1.0000 0.83000  0.00000  0.83000  Biso   1.000  Na
  Na7      1.0000 0.40000  0.02500  0.87500  Biso   1.000  Na
  Na8      1.0000 0.42000  0.50000  0.92000  Biso   1.000  Na
  S1       1.0000 0.76300  0.47000  0.00144  Biso   1.000  S 
  S2       1.0000 0.79600  0.72000  0.01280  Biso   1.000  S 
  S3       1.0000 0.32600  0.78000  0.04300  Biso   1.000  S 
  S4       1.0000 0.29300  0.28000  0.07630  Biso   1.000  S 
  S5       1.0000 0.92400  0.21700  0.20400  Biso   1.000  S 
  S6       1.0000 0.70700  0.23800  0.23700  Biso   1.000  S 
  S7       1.0000 0.54300  0.02990  0.28100  Biso   1.000  S 
  S8       1.0000 0.53100  0.53000  0.29300  Biso   1.000  S 
  S9       1.0000 0.48700  0.73800  0.45700  Biso   1.000  S 
  S10      1.0000 0.99900  0.76200  0.46900  Biso   1.000  S 
  S11      1.0000 0.25100  0.97000  0.51300  Biso   1.000  S 
  S12      1.0000 0.26300  0.22000  0.54600  Biso   1.000  S 
  S13      1.0000 0.45400  0.71700  0.67400  Biso   1.000  S 
  S14      1.0000 0.98700  0.78300  0.70700  Biso   1.000  S 
  S15      1.0000 0.95700  0.28300  0.73700  Biso   1.000  S 
  S16      1.0000 0.71900  0.26200  0.74900  Biso   1.000  S 
