data_image0
_cell_length_a       6.24576
_cell_length_b       6.72871
_cell_length_c       7.53783
_cell_angle_alpha    73.8178
_cell_angle_beta     65.5251
_cell_angle_gamma    62.3472

_symmetry_space_group_name_H-M    "P 1"
_symmetry_int_tables_number       1

loop_
  _symmetry_equiv_pos_as_xyz
  'x, y, z'

loop_
  _atom_site_label
  _atom_site_occupancy
  _atom_site_fract_x
  _atom_site_fract_y
  _atom_site_fract_z
  _atom_site_thermal_displace_type
  _atom_site_B_iso_or_equiv
  _atom_site_type_symbol
  Cs1      1.0000 0.06810  0.71100  0.15300  Biso   1.000  Cs
  Cs2      1.0000 0.30800  0.08120  0.30300  Biso   1.000  Cs
  Cs3      1.0000 0.69200  0.91900  0.69700  Biso   1.000  Cs
  Cs4      1.0000 0.93200  0.28900  0.84700  Biso   1.000  Cs
  O1       1.0000 0.61100  0.63400  0.14300  Biso   1.000  O 
  O2       1.0000 0.76400  0.18600  0.28700  Biso   1.000  O 
  O3       1.0000 0.30600  0.50000  0.50000  Biso   1.000  O 
  O4       1.0000 0.69400  0.50000  0.50000  Biso   1.000  O 
  O5       1.0000 0.23600  0.81400  0.71300  Biso   1.000  O 
  O6       1.0000 0.38900  0.36600  0.85700  Biso   1.000  O 
  Si1      1.0000 0.61200  0.44600  0.33000  Biso   1.000  Si
  Si2      1.0000 0.38800  0.55400  0.67000  Biso   1.000  Si
