data_image0
_cell_length_a       4.10199
_cell_length_b       4.10199
_cell_length_c       4.10199
_cell_angle_alpha    105.435
_cell_angle_beta     105.435
_cell_angle_gamma    117.885

_symmetry_space_group_name_H-M    "P 1"
_symmetry_int_tables_number       1

loop_
  _symmetry_equiv_pos_as_xyz
  'x, y, z'

loop_
  _atom_site_label
  _atom_site_occupancy
  _atom_site_fract_x
  _atom_site_fract_y
  _atom_site_fract_z
  _atom_site_thermal_displace_type
  _atom_site_B_iso_or_equiv
  _atom_site_type_symbol
  B1       1.0000 0.75000  0.75000  0.00000  Biso   1.000  B 
  B2       1.0000 0.25000  0.25000  0.00000  Biso   1.000  B 
  Co1      1.0000 0.16700  0.33300  0.50000  Biso   1.000  Co
  Co2      1.0000 0.83300  0.66700  0.50000  Biso   1.000  Co
  Co3      1.0000 0.33300  0.83300  0.16600  Biso   1.000  Co
  Co4      1.0000 0.66700  0.16700  0.83400  Biso   1.000  Co
