data_image0
_cell_length_a       7.48215
_cell_length_b       7.48215
_cell_length_c       7.48215
_cell_angle_alpha    109.471
_cell_angle_beta     109.471
_cell_angle_gamma    109.471

_symmetry_space_group_name_H-M    "P 1"
_symmetry_int_tables_number       1

loop_
  _symmetry_equiv_pos_as_xyz
  'x, y, z'

loop_
  _atom_site_label
  _atom_site_occupancy
  _atom_site_fract_x
  _atom_site_fract_y
  _atom_site_fract_z
  _atom_site_thermal_displace_type
  _atom_site_B_iso_or_equiv
  _atom_site_type_symbol
  P1       1.0000 0.15800  0.00000  0.00000  Biso   1.000  P 
  P2       1.0000 0.65800  0.00000  0.00000  Biso   1.000  P 
  P3       1.0000 0.50000  0.50000  0.15800  Biso   1.000  P 
  P4       1.0000 0.34200  0.84200  0.34200  Biso   1.000  P 
  P5       1.0000 0.00000  0.15800  0.50000  Biso   1.000  P 
  P6       1.0000 0.00000  0.65800  0.50000  Biso   1.000  P 
  P7       1.0000 0.50000  0.50000  0.65800  Biso   1.000  P 
  P8       1.0000 0.84200  0.34200  0.84200  Biso   1.000  P 
  Th1      1.0000 0.87500  0.75000  0.12500  Biso   1.000  Th
  Th2      1.0000 0.12500  0.37500  0.25000  Biso   1.000  Th
  Th3      1.0000 0.62500  0.25000  0.37500  Biso   1.000  Th
  Th4      1.0000 0.75000  0.87500  0.62500  Biso   1.000  Th
  Th5      1.0000 0.37500  0.12500  0.75000  Biso   1.000  Th
  Th6      1.0000 0.25000  0.62500  0.87500  Biso   1.000  Th
