data_image0
_cell_length_a       4.79951
_cell_length_b       5.75014
_cell_length_c       4.96861
_cell_angle_alpha    90
_cell_angle_beta     90.6108
_cell_angle_gamma    90

_symmetry_space_group_name_H-M    "P 1"
_symmetry_int_tables_number       1

loop_
  _symmetry_equiv_pos_as_xyz
  'x, y, z'

loop_
  _atom_site_label
  _atom_site_occupancy
  _atom_site_fract_x
  _atom_site_fract_y
  _atom_site_fract_z
  _atom_site_thermal_displace_type
  _atom_site_B_iso_or_equiv
  _atom_site_type_symbol
  Mn1      1.0000 0.00000  0.18700  0.25000  Biso   1.000  Mn
  Mn2      1.0000 0.00000  0.81300  0.75000  Biso   1.000  Mn
  Mo1      1.0000 0.50000  0.68800  0.25000  Biso   1.000  Mo
  Mo2      1.0000 0.50000  0.31200  0.75000  Biso   1.000  Mo
  O1       1.0000 0.28500  0.39800  0.05490  Biso   1.000  O 
  O2       1.0000 0.24600  0.88000  0.10100  Biso   1.000  O 
  O3       1.0000 0.75400  0.88000  0.39900  Biso   1.000  O 
  O4       1.0000 0.71500  0.39800  0.44500  Biso   1.000  O 
  O5       1.0000 0.28500  0.60200  0.55500  Biso   1.000  O 
  O6       1.0000 0.24600  0.12000  0.60100  Biso   1.000  O 
  O7       1.0000 0.75400  0.12000  0.89900  Biso   1.000  O 
  O8       1.0000 0.71500  0.60200  0.94500  Biso   1.000  O 
