data_image0
_cell_length_a       10.3872
_cell_length_b       10.3872
_cell_length_c       10.3872
_cell_angle_alpha    159.167
_cell_angle_beta     159.167
_cell_angle_gamma    29.6294

_symmetry_space_group_name_H-M    "P 1"
_symmetry_int_tables_number       1

loop_
  _symmetry_equiv_pos_as_xyz
  'x, y, z'

loop_
  _atom_site_label
  _atom_site_occupancy
  _atom_site_fract_x
  _atom_site_fract_y
  _atom_site_fract_z
  _atom_site_thermal_displace_type
  _atom_site_B_iso_or_equiv
  _atom_site_type_symbol
  Al1      1.0000 0.10400  0.10400  0.00000  Biso   1.000  Al
  Al2      1.0000 0.89600  0.89600  0.00000  Biso   1.000  Al
  O1       1.0000 0.19300  0.19300  0.00000  Biso   1.000  O 
  O2       1.0000 0.80700  0.80700  0.00000  Biso   1.000  O 
  O3       1.0000 0.58500  0.08540  0.50000  Biso   1.000  O 
  O4       1.0000 0.91500  0.41500  0.50000  Biso   1.000  O 
  O5       1.0000 0.08540  0.58500  0.50000  Biso   1.000  O 
  O6       1.0000 0.41500  0.91500  0.50000  Biso   1.000  O 
  Sr1      1.0000 0.31700  0.31700  0.00000  Biso   1.000  Sr
  Sr2      1.0000 0.50000  0.50000  0.00000  Biso   1.000  Sr
  Sr3      1.0000 0.68300  0.68300  0.00000  Biso   1.000  Sr
