data_image0
_cell_length_a       6.4027
_cell_length_b       5.26642
_cell_length_c       3.72182
_cell_angle_alpha    90
_cell_angle_beta     90
_cell_angle_gamma    90

_symmetry_space_group_name_H-M    "P 1"
_symmetry_int_tables_number       1

loop_
  _symmetry_equiv_pos_as_xyz
  'x, y, z'

loop_
  _atom_site_label
  _atom_site_occupancy
  _atom_site_fract_x
  _atom_site_fract_y
  _atom_site_fract_z
  _atom_site_thermal_displace_type
  _atom_site_B_iso_or_equiv
  _atom_site_type_symbol
  C1       1.0000 0.50000  0.00000  0.00000  Biso   1.000  C 
  C2       1.0000 0.61900  0.20800  0.00000  Biso   1.000  C 
  C3       1.0000 0.38100  0.79200  0.00000  Biso   1.000  C 
  C4       1.0000 0.11900  0.29200  0.50000  Biso   1.000  C 
  C5       1.0000 0.00000  0.50000  0.50000  Biso   1.000  C 
  C6       1.0000 0.88100  0.70800  0.50000  Biso   1.000  C 
  Mg1      1.0000 0.29100  0.39100  0.00000  Biso   1.000  Mg
  Mg2      1.0000 0.70900  0.60900  0.00000  Biso   1.000  Mg
  Mg3      1.0000 0.79100  0.10900  0.50000  Biso   1.000  Mg
  Mg4      1.0000 0.20900  0.89100  0.50000  Biso   1.000  Mg
