data_image0
_cell_length_a       12.6921
_cell_length_b       15.5383
_cell_length_c       6.94582
_cell_angle_alpha    90
_cell_angle_beta     90
_cell_angle_gamma    90

_symmetry_space_group_name_H-M    "P 1"
_symmetry_int_tables_number       1

loop_
  _symmetry_equiv_pos_as_xyz
  'x, y, z'

loop_
  _atom_site_label
  _atom_site_occupancy
  _atom_site_fract_x
  _atom_site_fract_y
  _atom_site_fract_z
  _atom_site_thermal_displace_type
  _atom_site_B_iso_or_equiv
  _atom_site_type_symbol
  I1       1.0000 0.22200  0.19000  0.58300  Biso   1.000  I 
  I2       1.0000 0.27800  0.81000  0.08250  Biso   1.000  I 
  I3       1.0000 0.72200  0.31000  0.41700  Biso   1.000  I 
  I4       1.0000 0.77800  0.69000  0.91700  Biso   1.000  I 
  I5       1.0000 0.77800  0.81000  0.41700  Biso   1.000  I 
  I6       1.0000 0.72200  0.19000  0.91700  Biso   1.000  I 
  I7       1.0000 0.27800  0.69000  0.58300  Biso   1.000  I 
  I8       1.0000 0.22200  0.31000  0.08250  Biso   1.000  I 
  I9       1.0000 0.46200  0.43300  0.24700  Biso   1.000  I 
  I10      1.0000 0.03780  0.56700  0.74700  Biso   1.000  I 
  I11      1.0000 0.96200  0.06740  0.75300  Biso   1.000  I 
  I12      1.0000 0.53800  0.93300  0.25300  Biso   1.000  I 
  I13      1.0000 0.53800  0.56700  0.75300  Biso   1.000  I 
  I14      1.0000 0.96200  0.43300  0.25300  Biso   1.000  I 
  I15      1.0000 0.03780  0.93300  0.24700  Biso   1.000  I 
  I16      1.0000 0.46200  0.06740  0.74700  Biso   1.000  I 
  I17      1.0000 0.46000  0.18400  0.22000  Biso   1.000  I 
  I18      1.0000 0.03980  0.81600  0.72000  Biso   1.000  I 
  I19      1.0000 0.96000  0.31600  0.78000  Biso   1.000  I 
  I20      1.0000 0.54000  0.68400  0.28000  Biso   1.000  I 
  I21      1.0000 0.54000  0.81600  0.78000  Biso   1.000  I 
  I22      1.0000 0.96000  0.18400  0.28000  Biso   1.000  I 
  I23      1.0000 0.03980  0.68400  0.22000  Biso   1.000  I 
  I24      1.0000 0.46000  0.31600  0.72000  Biso   1.000  I 
  I25      1.0000 0.21400  0.43400  0.56400  Biso   1.000  I 
  I26      1.0000 0.28600  0.56600  0.06420  Biso   1.000  I 
  I27      1.0000 0.71400  0.06590  0.43600  Biso   1.000  I 
  I28      1.0000 0.78600  0.93400  0.93600  Biso   1.000  I 
  I29      1.0000 0.78600  0.56600  0.43600  Biso   1.000  I 
  I30      1.0000 0.71400  0.43400  0.93600  Biso   1.000  I 
  I31      1.0000 0.28600  0.93400  0.56400  Biso   1.000  I 
  I32      1.0000 0.21400  0.06590  0.06420  Biso   1.000  I 
  Pt1      1.0000 0.33900  0.18800  0.90500  Biso   1.000  Pt
  Pt2      1.0000 0.16100  0.81200  0.40500  Biso   1.000  Pt
  Pt3      1.0000 0.83900  0.31200  0.09500  Biso   1.000  Pt
  Pt4      1.0000 0.66100  0.68800  0.59500  Biso   1.000  Pt
  Pt5      1.0000 0.66100  0.81200  0.09500  Biso   1.000  Pt
  Pt6      1.0000 0.83900  0.18800  0.59500  Biso   1.000  Pt
  Pt7      1.0000 0.16100  0.68800  0.90500  Biso   1.000  Pt
  Pt8      1.0000 0.33900  0.31200  0.40500  Biso   1.000  Pt
