data_image0
_cell_length_a       4.24846
_cell_length_b       4.24846
_cell_length_c       5.62382
_cell_angle_alpha    111.699
_cell_angle_beta     68.3015
_cell_angle_gamma    97.3979

_symmetry_space_group_name_H-M    "P 1"
_symmetry_int_tables_number       1

loop_
  _symmetry_equiv_pos_as_xyz
  'x, y, z'

loop_
  _atom_site_label
  _atom_site_occupancy
  _atom_site_fract_x
  _atom_site_fract_y
  _atom_site_fract_z
  _atom_site_thermal_displace_type
  _atom_site_B_iso_or_equiv
  _atom_site_type_symbol
  Ni1      1.0000 0.00000  0.50000  0.00000  Biso   1.000  Ni
  Ni2      1.0000 0.50000  0.00000  0.50000  Biso   1.000  Ni
  P1       1.0000 0.31400  0.91500  0.16500  Biso   1.000  P 
  P2       1.0000 0.91500  0.31400  0.33500  Biso   1.000  P 
  P3       1.0000 0.08500  0.68600  0.66500  Biso   1.000  P 
  P4       1.0000 0.68600  0.08500  0.83500  Biso   1.000  P 
