data_image0
_cell_length_a       5.0354
_cell_length_b       6.22289
_cell_length_c       3.77861
_cell_angle_alpha    90
_cell_angle_beta     90
_cell_angle_gamma    90

_symmetry_space_group_name_H-M    "P 1"
_symmetry_int_tables_number       1

loop_
  _symmetry_equiv_pos_as_xyz
  'x, y, z'

loop_
  _atom_site_label
  _atom_site_occupancy
  _atom_site_fract_x
  _atom_site_fract_y
  _atom_site_fract_z
  _atom_site_thermal_displace_type
  _atom_site_B_iso_or_equiv
  _atom_site_type_symbol
  Cu1      1.0000 0.00000  0.00000  0.00000  Biso   1.000  Cu
  Cu2      1.0000 0.50000  0.50000  0.50000  Biso   1.000  Cu
  Se1      1.0000 0.18700  0.38500  0.00000  Biso   1.000  Se
  Se2      1.0000 0.81300  0.61500  0.00000  Biso   1.000  Se
  Se3      1.0000 0.68700  0.11500  0.50000  Biso   1.000  Se
  Se4      1.0000 0.31300  0.88500  0.50000  Biso   1.000  Se
