data_image0
_cell_length_a       8.87531
_cell_length_b       3.61158
_cell_length_c       11.3463
_cell_angle_alpha    90
_cell_angle_beta     90
_cell_angle_gamma    90

_symmetry_space_group_name_H-M    "P 1"
_symmetry_int_tables_number       1

loop_
  _symmetry_equiv_pos_as_xyz
  'x, y, z'

loop_
  _atom_site_label
  _atom_site_occupancy
  _atom_site_fract_x
  _atom_site_fract_y
  _atom_site_fract_z
  _atom_site_thermal_displace_type
  _atom_site_B_iso_or_equiv
  _atom_site_type_symbol
  Cl1      1.0000 0.68800  0.25000  0.09560  Biso   1.000  Cl
  Cl2      1.0000 0.03400  0.75000  0.12500  Biso   1.000  Cl
  Cl3      1.0000 0.53400  0.75000  0.37500  Biso   1.000  Cl
  Cl4      1.0000 0.18800  0.25000  0.40400  Biso   1.000  Cl
  Cl5      1.0000 0.81200  0.75000  0.59600  Biso   1.000  Cl
  Cl6      1.0000 0.46600  0.25000  0.62500  Biso   1.000  Cl
  Cl7      1.0000 0.96600  0.25000  0.87500  Biso   1.000  Cl
  Cl8      1.0000 0.31200  0.75000  0.90400  Biso   1.000  Cl
  H1       1.0000 0.44400  0.25000  0.14300  Biso   1.000  H 
  H2       1.0000 0.30500  0.25000  0.23400  Biso   1.000  H 
  H3       1.0000 0.80500  0.25000  0.26600  Biso   1.000  H 
  H4       1.0000 0.94400  0.25000  0.35700  Biso   1.000  H 
  H5       1.0000 0.05600  0.75000  0.64300  Biso   1.000  H 
  H6       1.0000 0.19500  0.75000  0.73400  Biso   1.000  H 
  H7       1.0000 0.69500  0.75000  0.76600  Biso   1.000  H 
  H8       1.0000 0.55600  0.75000  0.85700  Biso   1.000  H 
  Mg1      1.0000 0.18500  0.25000  0.01710  Biso   1.000  Mg
  Mg2      1.0000 0.68500  0.25000  0.48300  Biso   1.000  Mg
  Mg3      1.0000 0.31500  0.75000  0.51700  Biso   1.000  Mg
  Mg4      1.0000 0.81500  0.75000  0.98300  Biso   1.000  Mg
  O1       1.0000 0.33400  0.25000  0.15000  Biso   1.000  O 
  O2       1.0000 0.83400  0.25000  0.35000  Biso   1.000  O 
  O3       1.0000 0.16600  0.75000  0.65000  Biso   1.000  O 
  O4       1.0000 0.66600  0.75000  0.85000  Biso   1.000  O 
