data_image0
_cell_length_a       3.84115
_cell_length_b       4.2938
_cell_length_c       5.09737
_cell_angle_alpha    114.909
_cell_angle_beta     112.134
_cell_angle_gamma    90

_symmetry_space_group_name_H-M    "P 1"
_symmetry_int_tables_number       1

loop_
  _symmetry_equiv_pos_as_xyz
  'x, y, z'

loop_
  _atom_site_label
  _atom_site_occupancy
  _atom_site_fract_x
  _atom_site_fract_y
  _atom_site_fract_z
  _atom_site_thermal_displace_type
  _atom_site_B_iso_or_equiv
  _atom_site_type_symbol
  F1       1.0000 0.66600  0.16600  0.33200  Biso   1.000  F 
  F2       1.0000 0.33400  0.83400  0.66800  Biso   1.000  F 
  O1       1.0000 0.00000  0.50000  0.00000  Biso   1.000  O 
  Th1      1.0000 0.00000  0.00000  0.00000  Biso   1.000  Th
