data_image0
_cell_length_a       4.00248
_cell_length_b       4.00248
_cell_length_c       4.94479
_cell_angle_alpha    90
_cell_angle_beta     90
_cell_angle_gamma    90.0178

_symmetry_space_group_name_H-M    "P 1"
_symmetry_int_tables_number       1

loop_
  _symmetry_equiv_pos_as_xyz
  'x, y, z'

loop_
  _atom_site_label
  _atom_site_occupancy
  _atom_site_fract_x
  _atom_site_fract_y
  _atom_site_fract_z
  _atom_site_thermal_displace_type
  _atom_site_B_iso_or_equiv
  _atom_site_type_symbol
  O1       1.0000 0.75000  0.25000  0.00000  Biso   1.000  O 
  O2       1.0000 0.25000  0.75000  0.00000  Biso   1.000  O 
  Pb1      1.0000 0.25000  0.25000  0.24300  Biso   1.000  Pb
  Pb2      1.0000 0.75000  0.75000  0.75700  Biso   1.000  Pb
