data_image0
_cell_length_a       7.61637
_cell_length_b       7.61645
_cell_length_c       2.91046
_cell_angle_alpha    90
_cell_angle_beta     90
_cell_angle_gamma    120

_symmetry_space_group_name_H-M    "P 1"
_symmetry_int_tables_number       1

loop_
  _symmetry_equiv_pos_as_xyz
  'x, y, z'

loop_
  _atom_site_label
  _atom_site_occupancy
  _atom_site_fract_x
  _atom_site_fract_y
  _atom_site_fract_z
  _atom_site_thermal_displace_type
  _atom_site_B_iso_or_equiv
  _atom_site_type_symbol
  N1       1.0000 0.33000  0.03060  0.25000  Biso   1.000  N 
  N2       1.0000 0.96900  0.30000  0.25000  Biso   1.000  N 
  N3       1.0000 0.33300  0.66700  0.25000  Biso   1.000  N 
  N4       1.0000 0.70000  0.67000  0.25000  Biso   1.000  N 
  N5       1.0000 0.30000  0.33000  0.75000  Biso   1.000  N 
  N6       1.0000 0.66700  0.33300  0.75000  Biso   1.000  N 
  N7       1.0000 0.03060  0.70000  0.75000  Biso   1.000  N 
  N8       1.0000 0.67000  0.96900  0.75000  Biso   1.000  N 
  Si1      1.0000 0.23100  0.40600  0.25000  Biso   1.000  Si
  Si2      1.0000 0.17500  0.76900  0.25000  Biso   1.000  Si
  Si3      1.0000 0.59400  0.82500  0.25000  Biso   1.000  Si
  Si4      1.0000 0.40600  0.17500  0.75000  Biso   1.000  Si
  Si5      1.0000 0.82500  0.23100  0.75000  Biso   1.000  Si
  Si6      1.0000 0.76900  0.59400  0.75000  Biso   1.000  Si
