data_image0
_cell_length_a       4.71405
_cell_length_b       4.71405
_cell_length_c       5.67973
_cell_angle_alpha    90
_cell_angle_beta     114.519
_cell_angle_gamma    60

_symmetry_space_group_name_H-M    "P 1"
_symmetry_int_tables_number       1

loop_
  _symmetry_equiv_pos_as_xyz
  'x, y, z'

loop_
  _atom_site_label
  _atom_site_occupancy
  _atom_site_fract_x
  _atom_site_fract_y
  _atom_site_fract_z
  _atom_site_thermal_displace_type
  _atom_site_B_iso_or_equiv
  _atom_site_type_symbol
  C1       1.0000 0.50000  0.25000  0.25000  Biso   1.000  C 
  C2       1.0000 0.50000  0.75000  0.75000  Biso   1.000  C 
  Fe1      1.0000 0.00000  0.00000  0.00000  Biso   1.000  Fe
  Fe2      1.0000 0.00000  0.50000  0.50000  Biso   1.000  Fe
  O1       1.0000 0.77400  0.97600  0.25000  Biso   1.000  O 
  O2       1.0000 0.50000  0.52400  0.25000  Biso   1.000  O 
  O3       1.0000 0.22600  0.25000  0.25000  Biso   1.000  O 
  O4       1.0000 0.77400  0.75000  0.75000  Biso   1.000  O 
  O5       1.0000 0.50000  0.47600  0.75000  Biso   1.000  O 
  O6       1.0000 0.22600  0.02450  0.75000  Biso   1.000  O 
