data_image0
_cell_length_a       2.91275
_cell_length_b       5.62426
_cell_length_c       6.06242
_cell_angle_alpha    103.526
_cell_angle_beta     103.9
_cell_angle_gamma    90

_symmetry_space_group_name_H-M    "P 1"
_symmetry_int_tables_number       1

loop_
  _symmetry_equiv_pos_as_xyz
  'x, y, z'

loop_
  _atom_site_label
  _atom_site_occupancy
  _atom_site_fract_x
  _atom_site_fract_y
  _atom_site_fract_z
  _atom_site_thermal_displace_type
  _atom_site_B_iso_or_equiv
  _atom_site_type_symbol
  Al1      1.0000 0.09110  0.79700  0.18200  Biso   1.000  Al
  Al2      1.0000 0.65800  0.31700  0.31700  Biso   1.000  Al
  Al3      1.0000 0.34200  0.68300  0.68300  Biso   1.000  Al
  Al4      1.0000 0.90900  0.20300  0.81800  Biso   1.000  Al
  O1       1.0000 0.50500  0.74500  0.00958  Biso   1.000  O 
  O2       1.0000 0.16300  0.10900  0.32700  Biso   1.000  O 
  O3       1.0000 0.17300  0.56500  0.34500  Biso   1.000  O 
  O4       1.0000 0.82700  0.43500  0.65500  Biso   1.000  O 
  O5       1.0000 0.83700  0.89100  0.67300  Biso   1.000  O 
  O6       1.0000 0.49500  0.25500  0.99000  Biso   1.000  O 
