data_image0
_cell_length_a       8.18195
_cell_length_b       8.58745
_cell_length_c       4.7885
_cell_angle_alpha    90
_cell_angle_beta     90.0051
_cell_angle_gamma    90

_symmetry_space_group_name_H-M    "P 1"
_symmetry_int_tables_number       1

loop_
  _symmetry_equiv_pos_as_xyz
  'x, y, z'

loop_
  _atom_site_label
  _atom_site_occupancy
  _atom_site_fract_x
  _atom_site_fract_y
  _atom_site_fract_z
  _atom_site_thermal_displace_type
  _atom_site_B_iso_or_equiv
  _atom_site_type_symbol
  Al1      1.0000 0.43100  0.63700  0.09640  Biso   1.000  Al
  Al2      1.0000 0.06580  0.34600  0.40400  Biso   1.000  Al
  Al3      1.0000 0.93400  0.84600  0.59600  Biso   1.000  Al
  Al4      1.0000 0.56900  0.13700  0.90400  Biso   1.000  Al
  Ca1      1.0000 0.24900  0.00623  0.35900  Biso   1.000  Ca
  Ca2      1.0000 0.75100  0.50600  0.64100  Biso   1.000  Ca
  O1       1.0000 0.23000  0.59700  0.01180  Biso   1.000  O 
  O2       1.0000 0.06370  0.18700  0.17100  Biso   1.000  O 
  O3       1.0000 0.45100  0.17900  0.20000  Biso   1.000  O 
  O4       1.0000 0.53900  0.48300  0.26000  Biso   1.000  O 
  O5       1.0000 0.95700  0.51000  0.27600  Biso   1.000  O 
  O6       1.0000 0.05790  0.80600  0.30200  Biso   1.000  O 
  O7       1.0000 0.43100  0.79900  0.32200  Biso   1.000  O 
  O8       1.0000 0.73300  0.85800  0.49000  Biso   1.000  O 
  O9       1.0000 0.26700  0.35800  0.51000  Biso   1.000  O 
  O10      1.0000 0.56900  0.29900  0.67800  Biso   1.000  O 
  O11      1.0000 0.94200  0.30600  0.69800  Biso   1.000  O 
  O12      1.0000 0.04280  0.00955  0.72400  Biso   1.000  O 
  O13      1.0000 0.46100  0.98300  0.74000  Biso   1.000  O 
  O14      1.0000 0.54900  0.67900  0.80000  Biso   1.000  O 
  O15      1.0000 0.93600  0.68700  0.82900  Biso   1.000  O 
  O16      1.0000 0.77000  0.09710  0.98800  Biso   1.000  O 
  Si1      1.0000 0.04940  0.65100  0.10300  Biso   1.000  Si
  Si2      1.0000 0.45200  0.33200  0.40700  Biso   1.000  Si
  Si3      1.0000 0.54800  0.83200  0.59300  Biso   1.000  Si
  Si4      1.0000 0.95100  0.15100  0.89700  Biso   1.000  Si
