data_image0
_cell_length_a       3.65392
_cell_length_b       3.65421
_cell_length_c       5.81844
_cell_angle_alpha    90
_cell_angle_beta     89.9969
_cell_angle_gamma    120.003

_symmetry_space_group_name_H-M    "P 1"
_symmetry_int_tables_number       1

loop_
  _symmetry_equiv_pos_as_xyz
  'x, y, z'

loop_
  _atom_site_label
  _atom_site_occupancy
  _atom_site_fract_x
  _atom_site_fract_y
  _atom_site_fract_z
  _atom_site_thermal_displace_type
  _atom_site_B_iso_or_equiv
  _atom_site_type_symbol
  Dy1      1.0000 0.33300  0.66700  0.24900  Biso   1.000  Dy
  Dy2      1.0000 0.66700  0.33300  0.75100  Biso   1.000  Dy
  O1       1.0000 0.00000  0.00000  0.00000  Biso   1.000  O 
  O2       1.0000 0.66700  0.33300  0.35500  Biso   1.000  O 
  O3       1.0000 0.33300  0.66700  0.64500  Biso   1.000  O 
