data_image0
_cell_length_a       3.8362
_cell_length_b       3.99331
_cell_length_c       6.75718
_cell_angle_alpha    90.7196
_cell_angle_beta     106.491
_cell_angle_gamma    90

_symmetry_space_group_name_H-M    "P 1"
_symmetry_int_tables_number       1

loop_
  _symmetry_equiv_pos_as_xyz
  'x, y, z'

loop_
  _atom_site_label
  _atom_site_occupancy
  _atom_site_fract_x
  _atom_site_fract_y
  _atom_site_fract_z
  _atom_site_thermal_displace_type
  _atom_site_B_iso_or_equiv
  _atom_site_type_symbol
  Nb1      1.0000 0.14600  0.06530  0.29200  Biso   1.000  Nb
  Nb2      1.0000 0.85400  0.93500  0.70800  Biso   1.000  Nb
  O1       1.0000 0.00000  0.00000  0.00000  Biso   1.000  O 
  O2       1.0000 0.14800  0.51700  0.29700  Biso   1.000  O 
  O3       1.0000 0.68500  0.00061  0.36900  Biso   1.000  O 
  O4       1.0000 0.31500  0.99900  0.63100  Biso   1.000  O 
  O5       1.0000 0.85200  0.48300  0.70300  Biso   1.000  O 
