data_image0
_cell_length_a       10.3838
_cell_length_b       10.3838
_cell_length_c       12.7717
_cell_angle_alpha    90
_cell_angle_beta     90
_cell_angle_gamma    104.057

_symmetry_space_group_name_H-M    "P 1"
_symmetry_int_tables_number       1

loop_
  _symmetry_equiv_pos_as_xyz
  'x, y, z'

loop_
  _atom_site_label
  _atom_site_occupancy
  _atom_site_fract_x
  _atom_site_fract_y
  _atom_site_fract_z
  _atom_site_thermal_displace_type
  _atom_site_B_iso_or_equiv
  _atom_site_type_symbol
  I1       1.0000 0.71000  0.29000  0.00000  Biso   1.000  I 
  I2       1.0000 0.29000  0.71000  0.00000  Biso   1.000  I 
  I3       1.0000 0.91300  0.67200  0.07030  Biso   1.000  I 
  I4       1.0000 0.67200  0.91300  0.07030  Biso   1.000  I 
  I5       1.0000 0.34600  0.34600  0.15400  Biso   1.000  I 
  I6       1.0000 0.95000  0.19100  0.20800  Biso   1.000  I 
  I7       1.0000 0.19100  0.95000  0.20800  Biso   1.000  I 
  I8       1.0000 0.69100  0.45000  0.29200  Biso   1.000  I 
  I9       1.0000 0.45000  0.69100  0.29200  Biso   1.000  I 
  I10      1.0000 0.84600  0.84600  0.34600  Biso   1.000  I 
  I11      1.0000 0.41300  0.17200  0.43000  Biso   1.000  I 
  I12      1.0000 0.17200  0.41300  0.43000  Biso   1.000  I 
  I13      1.0000 0.79000  0.21000  0.50000  Biso   1.000  I 
  I14      1.0000 0.21000  0.79000  0.50000  Biso   1.000  I 
  I15      1.0000 0.82800  0.58700  0.57000  Biso   1.000  I 
  I16      1.0000 0.58700  0.82800  0.57000  Biso   1.000  I 
  I17      1.0000 0.15400  0.15400  0.65400  Biso   1.000  I 
  I18      1.0000 0.55000  0.30900  0.70800  Biso   1.000  I 
  I19      1.0000 0.30900  0.55000  0.70800  Biso   1.000  I 
  I20      1.0000 0.80900  0.05010  0.79200  Biso   1.000  I 
  I21      1.0000 0.05010  0.80900  0.79200  Biso   1.000  I 
  I22      1.0000 0.65400  0.65400  0.84600  Biso   1.000  I 
  I23      1.0000 0.32800  0.08660  0.93000  Biso   1.000  I 
  I24      1.0000 0.08660  0.32800  0.93000  Biso   1.000  I 
  Mo1      1.0000 0.88400  0.11600  0.00000  Biso   1.000  Mo
  Mo2      1.0000 0.11600  0.88400  0.00000  Biso   1.000  Mo
  Mo3      1.0000 0.13400  0.13400  0.06620  Biso   1.000  Mo
  Mo4      1.0000 0.93400  0.93400  0.13400  Biso   1.000  Mo
  Mo5      1.0000 0.43400  0.43400  0.36600  Biso   1.000  Mo
  Mo6      1.0000 0.63400  0.63400  0.43400  Biso   1.000  Mo
  Mo7      1.0000 0.61600  0.38400  0.50000  Biso   1.000  Mo
  Mo8      1.0000 0.38400  0.61600  0.50000  Biso   1.000  Mo
  Mo9      1.0000 0.36600  0.36600  0.56600  Biso   1.000  Mo
  Mo10     1.0000 0.56600  0.56600  0.63400  Biso   1.000  Mo
  Mo11     1.0000 0.06630  0.06630  0.86600  Biso   1.000  Mo
  Mo12     1.0000 0.86600  0.86600  0.93400  Biso   1.000  Mo
