data_image0
_cell_length_a       6.85644
_cell_length_b       6.84867
_cell_length_c       6.8601
_cell_angle_alpha    60.0551
_cell_angle_beta     99.4599
_cell_angle_gamma    109.224

_symmetry_space_group_name_H-M    "P 1"
_symmetry_int_tables_number       1

loop_
  _symmetry_equiv_pos_as_xyz
  'x, y, z'

loop_
  _atom_site_label
  _atom_site_occupancy
  _atom_site_fract_x
  _atom_site_fract_y
  _atom_site_fract_z
  _atom_site_thermal_displace_type
  _atom_site_B_iso_or_equiv
  _atom_site_type_symbol
  Br1      1.0000 0.75700  0.77300  1.00000  Biso   1.000  Br
  Br2      1.0000 0.24300  0.22700  1.00000  Biso   1.000  Br
  Br3      1.0000 0.24000  0.57800  0.35100  Biso   1.000  Br
  Br4      1.0000 0.76000  0.07090  0.35100  Biso   1.000  Br
  Br5      1.0000 0.24000  0.92900  0.64900  Biso   1.000  Br
  Br6      1.0000 0.76000  0.42200  0.64900  Biso   1.000  Br
  In1      1.0000 0.00000  0.83400  0.33200  Biso   1.000  In
  In2      1.0000 0.00000  0.16600  0.66800  Biso   1.000  In
