data_image0
_cell_length_a       4.87156
_cell_length_b       4.87156
_cell_length_c       8.04573
_cell_angle_alpha    90
_cell_angle_beta     90
_cell_angle_gamma    90

_symmetry_space_group_name_H-M    "P 1"
_symmetry_int_tables_number       1

loop_
  _symmetry_equiv_pos_as_xyz
  'x, y, z'

loop_
  _atom_site_label
  _atom_site_occupancy
  _atom_site_fract_x
  _atom_site_fract_y
  _atom_site_fract_z
  _atom_site_thermal_displace_type
  _atom_site_B_iso_or_equiv
  _atom_site_type_symbol
  F1       1.0000 0.36900  0.75400  0.07480  Biso   1.000  F 
  F2       1.0000 0.13100  0.25400  0.17500  Biso   1.000  F 
  F3       1.0000 0.74600  0.86900  0.32500  Biso   1.000  F 
  F4       1.0000 0.24600  0.63100  0.42500  Biso   1.000  F 
  F5       1.0000 0.63100  0.24600  0.57500  Biso   1.000  F 
  F6       1.0000 0.86900  0.74600  0.67500  Biso   1.000  F 
  F7       1.0000 0.25400  0.13100  0.82500  Biso   1.000  F 
  F8       1.0000 0.75400  0.36900  0.92500  Biso   1.000  F 
  Sn1      1.0000 0.96400  0.96400  0.00000  Biso   1.000  Sn
  Sn2      1.0000 0.53600  0.46400  0.25000  Biso   1.000  Sn
  Sn3      1.0000 0.03570  0.03570  0.50000  Biso   1.000  Sn
  Sn4      1.0000 0.46400  0.53600  0.75000  Biso   1.000  Sn
