data_image0
_cell_length_a       12.2693
_cell_length_b       12.2693
_cell_length_c       12.2693
_cell_angle_alpha    127.025
_cell_angle_beta     127.025
_cell_angle_gamma    78.2107

_symmetry_space_group_name_H-M    "P 1"
_symmetry_int_tables_number       1

loop_
  _symmetry_equiv_pos_as_xyz
  'x, y, z'

loop_
  _atom_site_label
  _atom_site_occupancy
  _atom_site_fract_x
  _atom_site_fract_y
  _atom_site_fract_z
  _atom_site_thermal_displace_type
  _atom_site_B_iso_or_equiv
  _atom_site_type_symbol
  Ge1      1.0000 0.41000  0.43600  0.72300  Biso   1.000  Ge
  Ge2      1.0000 0.21300  0.68700  0.77700  Biso   1.000  Ge
  Ge3      1.0000 0.09020  0.81300  0.02590  Biso   1.000  Ge
  Ge4      1.0000 0.28700  0.06420  0.47400  Biso   1.000  Ge
  Ge5      1.0000 0.06420  0.09020  0.77700  Biso   1.000  Ge
  Ge6      1.0000 0.81300  0.28700  0.72300  Biso   1.000  Ge
  Ge7      1.0000 0.68700  0.41000  0.47400  Biso   1.000  Ge
  Ge8      1.0000 0.43600  0.21300  0.02590  Biso   1.000  Ge
  Ge9      1.0000 0.59000  0.56400  0.27700  Biso   1.000  Ge
  Ge10     1.0000 0.78700  0.31300  0.22300  Biso   1.000  Ge
  Ge11     1.0000 0.91000  0.18700  0.97400  Biso   1.000  Ge
  Ge12     1.0000 0.71300  0.93600  0.52600  Biso   1.000  Ge
  Ge13     1.0000 0.93600  0.91000  0.22300  Biso   1.000  Ge
  Ge14     1.0000 0.18700  0.71300  0.27700  Biso   1.000  Ge
  Ge15     1.0000 0.31300  0.59000  0.52600  Biso   1.000  Ge
  Ge16     1.0000 0.56400  0.78700  0.97400  Biso   1.000  Ge
  S1       1.0000 0.38400  0.40300  0.03550  Biso   1.000  S 
  S2       1.0000 0.86700  0.34900  0.46500  Biso   1.000  S 
  S3       1.0000 0.11600  0.15100  0.01810  Biso   1.000  S 
  S4       1.0000 0.63300  0.09740  0.48200  Biso   1.000  S 
  S5       1.0000 0.09740  0.11600  0.46500  Biso   1.000  S 
  S6       1.0000 0.15100  0.63300  0.03550  Biso   1.000  S 
  S7       1.0000 0.34900  0.38400  0.48200  Biso   1.000  S 
  S8       1.0000 0.40300  0.86700  0.01810  Biso   1.000  S 
  S9       1.0000 0.61600  0.59700  0.96500  Biso   1.000  S 
  S10      1.0000 0.13300  0.65100  0.53500  Biso   1.000  S 
  S11      1.0000 0.88400  0.84900  0.98200  Biso   1.000  S 
  S12      1.0000 0.36700  0.90300  0.51800  Biso   1.000  S 
  S13      1.0000 0.90300  0.88400  0.53500  Biso   1.000  S 
  S14      1.0000 0.84900  0.36700  0.96500  Biso   1.000  S 
  S15      1.0000 0.65100  0.61600  0.51800  Biso   1.000  S 
  S16      1.0000 0.59700  0.13300  0.98200  Biso   1.000  S 
  S17      1.0000 0.25000  0.53000  0.28000  Biso   1.000  S 
  S18      1.0000 0.75000  0.97000  0.22000  Biso   1.000  S 
  S19      1.0000 0.97000  0.25000  0.22000  Biso   1.000  S 
  S20      1.0000 0.53000  0.75000  0.28000  Biso   1.000  S 
  S21      1.0000 0.75000  0.47000  0.72000  Biso   1.000  S 
  S22      1.0000 0.25000  0.03000  0.78000  Biso   1.000  S 
  S23      1.0000 0.03000  0.75000  0.78000  Biso   1.000  S 
  S24      1.0000 0.47000  0.25000  0.72000  Biso   1.000  S 
  S25      1.0000 0.26300  0.01310  0.25000  Biso   1.000  S 
  S26      1.0000 0.23700  0.48700  0.75000  Biso   1.000  S 
  S27      1.0000 0.48700  0.23700  0.25000  Biso   1.000  S 
  S28      1.0000 0.01310  0.26300  0.75000  Biso   1.000  S 
  S29      1.0000 0.73700  0.98700  0.75000  Biso   1.000  S 
  S30      1.0000 0.76300  0.51300  0.25000  Biso   1.000  S 
  S31      1.0000 0.51300  0.76300  0.75000  Biso   1.000  S 
  S32      1.0000 0.98700  0.73700  0.25000  Biso   1.000  S 
