data_image0
_cell_length_a       3.82578
_cell_length_b       3.82578
_cell_length_c       14.146
_cell_angle_alpha    97.756
_cell_angle_beta     97.756
_cell_angle_gamma    90.1145

_symmetry_space_group_name_H-M    "P 1"
_symmetry_int_tables_number       1

loop_
  _symmetry_equiv_pos_as_xyz
  'x, y, z'

loop_
  _atom_site_label
  _atom_site_occupancy
  _atom_site_fract_x
  _atom_site_fract_y
  _atom_site_fract_z
  _atom_site_thermal_displace_type
  _atom_site_B_iso_or_equiv
  _atom_site_type_symbol
  La1      1.0000 0.56700  0.56700  0.13400  Biso   1.000  La
  La2      1.0000 0.69900  0.69900  0.39700  Biso   1.000  La
  La3      1.0000 0.30100  0.30100  0.60300  Biso   1.000  La
  La4      1.0000 0.43300  0.43300  0.86600  Biso   1.000  La
  Ni1      1.0000 0.00000  0.00000  0.00000  Biso   1.000  Ni
  Ni2      1.0000 0.14000  0.14000  0.28000  Biso   1.000  Ni
  Ni3      1.0000 0.86000  0.86000  0.72000  Biso   1.000  Ni
  O1       1.0000 0.50000  0.00000  0.00000  Biso   1.000  O 
  O2       1.0000 1.00000  0.50000  0.00000  Biso   1.000  O 
  O3       1.0000 0.06840  0.06840  0.13700  Biso   1.000  O 
  O4       1.0000 0.63900  0.13900  0.27900  Biso   1.000  O 
  O5       1.0000 0.13900  0.63900  0.27900  Biso   1.000  O 
  O6       1.0000 0.21700  0.21700  0.43400  Biso   1.000  O 
  O7       1.0000 0.78300  0.78300  0.56600  Biso   1.000  O 
  O8       1.0000 0.86100  0.36100  0.72100  Biso   1.000  O 
  O9       1.0000 0.36100  0.86100  0.72100  Biso   1.000  O 
  O10      1.0000 0.93200  0.93200  0.86300  Biso   1.000  O 
