data_image0
_cell_length_a       5.47614
_cell_length_b       5.47614
_cell_length_c       7.75064
_cell_angle_alpha    90
_cell_angle_beta     90
_cell_angle_gamma    90

_symmetry_space_group_name_H-M    "P 1"
_symmetry_int_tables_number       1

loop_
  _symmetry_equiv_pos_as_xyz
  'x, y, z'

loop_
  _atom_site_label
  _atom_site_occupancy
  _atom_site_fract_x
  _atom_site_fract_y
  _atom_site_fract_z
  _atom_site_thermal_displace_type
  _atom_site_B_iso_or_equiv
  _atom_site_type_symbol
  Al1      1.0000 0.29000  0.29000  0.00000  Biso   1.000  Al
  Al2      1.0000 0.21000  0.79000  0.25000  Biso   1.000  Al
  Al3      1.0000 0.71000  0.71000  0.50000  Biso   1.000  Al
  Al4      1.0000 0.79000  0.21000  0.75000  Biso   1.000  Al
  K1       1.0000 0.73100  0.73100  0.00000  Biso   1.000  K 
  K2       1.0000 0.76900  0.23100  0.25000  Biso   1.000  K 
  K3       1.0000 0.26900  0.26900  0.50000  Biso   1.000  K 
  K4       1.0000 0.23100  0.76900  0.75000  Biso   1.000  K 
  O1       1.0000 0.25700  0.59400  0.07340  Biso   1.000  O 
  O2       1.0000 0.24300  0.09350  0.17700  Biso   1.000  O 
  O3       1.0000 0.90600  0.75700  0.32300  Biso   1.000  O 
  O4       1.0000 0.40600  0.74300  0.42700  Biso   1.000  O 
  O5       1.0000 0.74300  0.40600  0.57300  Biso   1.000  O 
  O6       1.0000 0.75700  0.90600  0.67700  Biso   1.000  O 
  O7       1.0000 0.09350  0.24300  0.82300  Biso   1.000  O 
  O8       1.0000 0.59400  0.25700  0.92700  Biso   1.000  O 
