data_image0
_cell_length_a       5.89378
_cell_length_b       7.53587
_cell_length_c       5.02875
_cell_angle_alpha    90
_cell_angle_beta     90
_cell_angle_gamma    90

_symmetry_space_group_name_H-M    "P 1"
_symmetry_int_tables_number       1

loop_
  _symmetry_equiv_pos_as_xyz
  'x, y, z'

loop_
  _atom_site_label
  _atom_site_occupancy
  _atom_site_fract_x
  _atom_site_fract_y
  _atom_site_fract_z
  _atom_site_thermal_displace_type
  _atom_site_B_iso_or_equiv
  _atom_site_type_symbol
  Co1      1.0000 0.50000  0.00000  0.00000  Biso   1.000  Co
  Co2      1.0000 0.50000  0.50000  0.00000  Biso   1.000  Co
  Co3      1.0000 0.00000  0.00000  0.50000  Biso   1.000  Co
  Co4      1.0000 0.00000  0.50000  0.50000  Biso   1.000  Co
  O1       1.0000 0.81800  0.57400  0.14000  Biso   1.000  O 
  O2       1.0000 0.81800  0.92600  0.14000  Biso   1.000  O 
  O3       1.0000 0.57000  0.25000  0.17600  Biso   1.000  O 
  O4       1.0000 0.07000  0.25000  0.32400  Biso   1.000  O 
  O5       1.0000 0.31800  0.57400  0.36000  Biso   1.000  O 
  O6       1.0000 0.31800  0.92600  0.36000  Biso   1.000  O 
  O7       1.0000 0.68200  0.07440  0.64000  Biso   1.000  O 
  O8       1.0000 0.68200  0.42600  0.64000  Biso   1.000  O 
  O9       1.0000 0.93000  0.75000  0.67600  Biso   1.000  O 
  O10      1.0000 0.43000  0.75000  0.82400  Biso   1.000  O 
  O11      1.0000 0.18200  0.07440  0.86000  Biso   1.000  O 
  O12      1.0000 0.18200  0.42600  0.86000  Biso   1.000  O 
  Se1      1.0000 0.98500  0.75000  0.01820  Biso   1.000  Se
  Se2      1.0000 0.48500  0.75000  0.48200  Biso   1.000  Se
  Se3      1.0000 0.51500  0.25000  0.51800  Biso   1.000  Se
  Se4      1.0000 0.01470  0.25000  0.98200  Biso   1.000  Se
