data_image0
_cell_length_a       5.41287
_cell_length_b       5.41287
_cell_length_c       5.41287
_cell_angle_alpha    45.6629
_cell_angle_beta     45.6629
_cell_angle_gamma    45.6629

_symmetry_space_group_name_H-M    "P 1"
_symmetry_int_tables_number       1

loop_
  _symmetry_equiv_pos_as_xyz
  'x, y, z'

loop_
  _atom_site_label
  _atom_site_occupancy
  _atom_site_fract_x
  _atom_site_fract_y
  _atom_site_fract_z
  _atom_site_thermal_displace_type
  _atom_site_B_iso_or_equiv
  _atom_site_type_symbol
  F1       1.0000 0.33000  0.33000  0.33000  Biso   1.000  F 
  F2       1.0000 0.67000  0.67000  0.67000  Biso   1.000  F 
  O1       1.0000 0.12100  0.12100  0.12100  Biso   1.000  O 
  O2       1.0000 0.87900  0.87900  0.87900  Biso   1.000  O 
  U1       1.0000 0.00000  0.00000  0.00000  Biso   1.000  U 
