data_image0
_cell_length_a       7.88037
_cell_length_b       9.39647
_cell_length_c       4.38436
_cell_angle_alpha    90
_cell_angle_beta     90
_cell_angle_gamma    90

_symmetry_space_group_name_H-M    "P 1"
_symmetry_int_tables_number       1

loop_
  _symmetry_equiv_pos_as_xyz
  'x, y, z'

loop_
  _atom_site_label
  _atom_site_occupancy
  _atom_site_fract_x
  _atom_site_fract_y
  _atom_site_fract_z
  _atom_site_thermal_displace_type
  _atom_site_B_iso_or_equiv
  _atom_site_type_symbol
  Cl1      1.0000 0.64400  0.07730  0.25000  Biso   1.000  Cl
  Cl2      1.0000 0.14400  0.42300  0.25000  Biso   1.000  Cl
  Cl3      1.0000 0.51800  0.65100  0.25000  Biso   1.000  Cl
  Cl4      1.0000 0.01830  0.84900  0.25000  Biso   1.000  Cl
  Cl5      1.0000 0.98200  0.15100  0.75000  Biso   1.000  Cl
  Cl6      1.0000 0.48200  0.34900  0.75000  Biso   1.000  Cl
  Cl7      1.0000 0.85600  0.57700  0.75000  Biso   1.000  Cl
  Cl8      1.0000 0.35600  0.92300  0.75000  Biso   1.000  Cl
  Sn1      1.0000 0.22900  0.07100  0.25000  Biso   1.000  Sn
  Sn2      1.0000 0.72900  0.42900  0.25000  Biso   1.000  Sn
  Sn3      1.0000 0.27100  0.57100  0.75000  Biso   1.000  Sn
  Sn4      1.0000 0.77100  0.92900  0.75000  Biso   1.000  Sn
