data_image0
_cell_length_a       6.91923
_cell_length_b       6.91923
_cell_length_c       6.91923
_cell_angle_alpha    120
_cell_angle_beta     90
_cell_angle_gamma    120

_symmetry_space_group_name_H-M    "P 1"
_symmetry_int_tables_number       1

loop_
  _symmetry_equiv_pos_as_xyz
  'x, y, z'

loop_
  _atom_site_label
  _atom_site_occupancy
  _atom_site_fract_x
  _atom_site_fract_y
  _atom_site_fract_z
  _atom_site_thermal_displace_type
  _atom_site_B_iso_or_equiv
  _atom_site_type_symbol
  Co1      1.0000 0.38000  0.25300  0.12700  Biso   1.000  Co
  Co2      1.0000 0.87300  0.25300  0.12700  Biso   1.000  Co
  Co3      1.0000 0.87300  0.74700  0.12700  Biso   1.000  Co
  Co4      1.0000 0.12700  0.25300  0.38000  Biso   1.000  Co
  Co5      1.0000 0.50000  0.00000  0.50000  Biso   1.000  Co
  Co6      1.0000 0.87300  0.74700  0.62000  Biso   1.000  Co
  Co7      1.0000 0.12700  0.25300  0.87300  Biso   1.000  Co
  Co8      1.0000 0.12700  0.74700  0.87300  Biso   1.000  Co
  Co9      1.0000 0.62000  0.74700  0.87300  Biso   1.000  Co
  S1       1.0000 0.75000  0.50000  0.25000  Biso   1.000  S 
  S2       1.0000 0.26200  0.00000  0.26200  Biso   1.000  S 
  S3       1.0000 0.73800  0.00000  0.26200  Biso   1.000  S 
  S4       1.0000 0.26200  0.52400  0.26200  Biso   1.000  S 
  S5       1.0000 0.26200  0.00000  0.73800  Biso   1.000  S 
  S6       1.0000 0.73800  0.00000  0.73800  Biso   1.000  S 
  S7       1.0000 0.73800  0.47600  0.73800  Biso   1.000  S 
  S8       1.0000 0.25000  0.50000  0.75000  Biso   1.000  S 
