data_image0
_cell_length_a       4.89228
_cell_length_b       4.89228
_cell_length_c       4.89228
_cell_angle_alpha    90.928
_cell_angle_beta     119.466
_cell_angle_gamma    119.466

_symmetry_space_group_name_H-M    "P 1"
_symmetry_int_tables_number       1

loop_
  _symmetry_equiv_pos_as_xyz
  'x, y, z'

loop_
  _atom_site_label
  _atom_site_occupancy
  _atom_site_fract_x
  _atom_site_fract_y
  _atom_site_fract_z
  _atom_site_thermal_displace_type
  _atom_site_B_iso_or_equiv
  _atom_site_type_symbol
  Al1      1.0000 0.00000  0.00000  0.00000  Biso   1.000  Al
  As1      1.0000 0.50000  0.25000  0.75000  Biso   1.000  As
  O1       1.0000 0.43400  0.13900  0.05170  Biso   1.000  O 
  O2       1.0000 0.08680  0.94800  0.38200  Biso   1.000  O 
  O3       1.0000 0.56600  0.61800  0.70400  Biso   1.000  O 
  O4       1.0000 0.91300  0.29600  0.86100  Biso   1.000  O 
