data_image0
_cell_length_a       4.9569
_cell_length_b       4.39277
_cell_length_c       3.00268
_cell_angle_alpha    90
_cell_angle_beta     90
_cell_angle_gamma    90

_symmetry_space_group_name_H-M    "P 1"
_symmetry_int_tables_number       1

loop_
  _symmetry_equiv_pos_as_xyz
  'x, y, z'

loop_
  _atom_site_label
  _atom_site_occupancy
  _atom_site_fract_x
  _atom_site_fract_y
  _atom_site_fract_z
  _atom_site_thermal_displace_type
  _atom_site_B_iso_or_equiv
  _atom_site_type_symbol
  Fe1      1.0000 0.00481  0.26900  0.00000  Biso   1.000  Fe
  Fe2      1.0000 0.50500  0.73100  0.50000  Biso   1.000  Fe
  H1       1.0000 0.52000  0.20500  0.00000  Biso   1.000  H 
  H2       1.0000 0.02000  0.79500  0.50000  Biso   1.000  H 
  O1       1.0000 0.64600  0.01420  0.00000  Biso   1.000  O 
  O2       1.0000 0.35600  0.48600  0.00000  Biso   1.000  O 
  O3       1.0000 0.85600  0.51400  0.50000  Biso   1.000  O 
  O4       1.0000 0.14600  0.98600  0.50000  Biso   1.000  O 
