data_image0
_cell_length_a       6.89451
_cell_length_b       6.94216
_cell_length_c       6.97866
_cell_angle_alpha    118.587
_cell_angle_beta     119.602
_cell_angle_gamma    60.2268

_symmetry_space_group_name_H-M    "P 1"
_symmetry_int_tables_number       1

loop_
  _symmetry_equiv_pos_as_xyz
  'x, y, z'

loop_
  _atom_site_label
  _atom_site_occupancy
  _atom_site_fract_x
  _atom_site_fract_y
  _atom_site_fract_z
  _atom_site_thermal_displace_type
  _atom_site_B_iso_or_equiv
  _atom_site_type_symbol
  Cl1      1.0000 0.26100  0.00000  0.00000  Biso   1.000  Cl
  Cl2      1.0000 0.73900  0.00000  0.00000  Biso   1.000  Cl
  Cl3      1.0000 0.82200  0.55100  0.19500  Biso   1.000  Cl
  Cl4      1.0000 0.30800  0.82400  0.43900  Biso   1.000  Cl
  Cl5      1.0000 0.69200  0.17600  0.56100  Biso   1.000  Cl
  Cl6      1.0000 0.17800  0.44900  0.80500  Biso   1.000  Cl
  Ga1      1.0000 0.65900  0.91200  0.23100  Biso   1.000  Ga
  Ga2      1.0000 0.34100  0.08760  0.76900  Biso   1.000  Ga
