data_image0
_cell_length_a       3.46956
_cell_length_b       3.46956
_cell_length_c       5.82525
_cell_angle_alpha    107.326
_cell_angle_beta     107.326
_cell_angle_gamma    90

_symmetry_space_group_name_H-M    "P 1"
_symmetry_int_tables_number       1

loop_
  _symmetry_equiv_pos_as_xyz
  'x, y, z'

loop_
  _atom_site_label
  _atom_site_occupancy
  _atom_site_fract_x
  _atom_site_fract_y
  _atom_site_fract_z
  _atom_site_thermal_displace_type
  _atom_site_B_iso_or_equiv
  _atom_site_type_symbol
  Mg1      1.0000 0.65000  0.65000  0.29900  Biso   1.000  Mg
  Mg2      1.0000 0.35000  0.35000  0.70100  Biso   1.000  Mg
  O1       1.0000 0.50000  0.00000  0.00000  Biso   1.000  O 
  O2       1.0000 0.00000  0.50000  0.00000  Biso   1.000  O 
  O3       1.0000 0.16800  0.16800  0.33600  Biso   1.000  O 
  O4       1.0000 0.83200  0.83200  0.66400  Biso   1.000  O 
  Si1      1.0000 0.00000  0.00000  0.00000  Biso   1.000  Si
