data_image0
_cell_length_a       5.33768
_cell_length_b       6.45239
_cell_length_c       4.05751
_cell_angle_alpha    90
_cell_angle_beta     90
_cell_angle_gamma    90

_symmetry_space_group_name_H-M    "P 1"
_symmetry_int_tables_number       1

loop_
  _symmetry_equiv_pos_as_xyz
  'x, y, z'

loop_
  _atom_site_label
  _atom_site_occupancy
  _atom_site_fract_x
  _atom_site_fract_y
  _atom_site_fract_z
  _atom_site_thermal_displace_type
  _atom_site_B_iso_or_equiv
  _atom_site_type_symbol
  Ru1      1.0000 0.00000  0.00000  0.00000  Biso   1.000  Ru
  Ru2      1.0000 0.50000  0.50000  0.50000  Biso   1.000  Ru
  Te1      1.0000 0.22100  0.36600  0.00000  Biso   1.000  Te
  Te2      1.0000 0.77900  0.63400  0.00000  Biso   1.000  Te
  Te3      1.0000 0.72100  0.13400  0.50000  Biso   1.000  Te
  Te4      1.0000 0.27900  0.86600  0.50000  Biso   1.000  Te
