data_image0
_cell_length_a       4.42982
_cell_length_b       5.39806
_cell_length_c       3.37897
_cell_angle_alpha    90
_cell_angle_beta     90
_cell_angle_gamma    90

_symmetry_space_group_name_H-M    "P 1"
_symmetry_int_tables_number       1

loop_
  _symmetry_equiv_pos_as_xyz
  'x, y, z'

loop_
  _atom_site_label
  _atom_site_occupancy
  _atom_site_fract_x
  _atom_site_fract_y
  _atom_site_fract_z
  _atom_site_thermal_displace_type
  _atom_site_B_iso_or_equiv
  _atom_site_type_symbol
  Fe1      1.0000 0.00000  0.00000  0.00570  Biso   1.000  Fe
  Fe2      1.0000 0.50000  0.50000  0.50600  Biso   1.000  Fe
  S1       1.0000 0.20600  0.37500  0.00605  Biso   1.000  S 
  S2       1.0000 0.79400  0.62500  0.00605  Biso   1.000  S 
  S3       1.0000 0.70600  0.12500  0.50600  Biso   1.000  S 
  S4       1.0000 0.29400  0.87500  0.50600  Biso   1.000  S 
