data_image0
_cell_length_a       6.12701
_cell_length_b       6.12701
_cell_length_c       4.45303
_cell_angle_alpha    90
_cell_angle_beta     90
_cell_angle_gamma    120.001

_symmetry_space_group_name_H-M    "P 1"
_symmetry_int_tables_number       1

loop_
  _symmetry_equiv_pos_as_xyz
  'x, y, z'

loop_
  _atom_site_label
  _atom_site_occupancy
  _atom_site_fract_x
  _atom_site_fract_y
  _atom_site_fract_z
  _atom_site_thermal_displace_type
  _atom_site_B_iso_or_equiv
  _atom_site_type_symbol
  Na1      1.0000 0.29600  0.00001  0.00000  Biso   1.000  Na
  Na2      1.0000 0.00001  0.29600  0.00000  Biso   1.000  Na
  Na3      1.0000 0.70400  0.70400  0.00000  Biso   1.000  Na
  Na4      1.0000 0.63100  0.00000  0.50000  Biso   1.000  Na
  Na5      1.0000 0.36900  0.36900  0.50000  Biso   1.000  Na
  Na6      1.0000 0.00000  0.63100  0.50000  Biso   1.000  Na
  O1       1.0000 0.66700  0.33300  0.17300  Biso   1.000  O 
  O2       1.0000 0.33300  0.66700  0.17300  Biso   1.000  O 
  O3       1.0000 0.00000  0.00000  0.32900  Biso   1.000  O 
  O4       1.0000 0.00000  0.00000  0.67100  Biso   1.000  O 
  O5       1.0000 0.66700  0.33300  0.82700  Biso   1.000  O 
  O6       1.0000 0.33300  0.66700  0.82700  Biso   1.000  O 
