data_image0
_cell_length_a       6.15363
_cell_length_b       12.5737
_cell_length_c       12.5737
_cell_angle_alpha    90.851
_cell_angle_beta     93.907
_cell_angle_gamma    93.907

_symmetry_space_group_name_H-M    "P 1"
_symmetry_int_tables_number       1

loop_
  _symmetry_equiv_pos_as_xyz
  'x, y, z'

loop_
  _atom_site_label
  _atom_site_occupancy
  _atom_site_fract_x
  _atom_site_fract_y
  _atom_site_fract_z
  _atom_site_thermal_displace_type
  _atom_site_B_iso_or_equiv
  _atom_site_type_symbol
  Cl1      1.0000 0.68200  0.82800  0.01840  Biso   1.000  Cl
  Cl2      1.0000 0.23700  0.44900  0.06650  Biso   1.000  Cl
  Cl3      1.0000 0.86300  0.07510  0.07510  Biso   1.000  Cl
  Cl4      1.0000 0.14200  0.73000  0.11400  Biso   1.000  Cl
  Cl5      1.0000 0.69700  0.34600  0.15600  Biso   1.000  Cl
  Cl6      1.0000 0.31800  0.98200  0.17200  Biso   1.000  Cl
  Cl7      1.0000 0.62900  0.60000  0.21500  Biso   1.000  Cl
  Cl8      1.0000 0.24500  0.26100  0.26100  Biso   1.000  Cl
  Cl9      1.0000 0.85800  0.88600  0.27000  Biso   1.000  Cl
  Cl10     1.0000 0.17100  0.51100  0.32000  Biso   1.000  Cl
  Cl11     1.0000 0.69700  0.15600  0.34600  Biso   1.000  Cl
  Cl12     1.0000 0.37100  0.78500  0.40000  Biso   1.000  Cl
  Cl13     1.0000 0.62200  0.40500  0.40500  Biso   1.000  Cl
  Cl14     1.0000 0.23700  0.06650  0.44900  Biso   1.000  Cl
  Cl15     1.0000 0.82900  0.68000  0.48900  Biso   1.000  Cl
  Cl16     1.0000 0.17100  0.32000  0.51100  Biso   1.000  Cl
  Cl17     1.0000 0.76300  0.93300  0.55100  Biso   1.000  Cl
  Cl18     1.0000 0.37800  0.59500  0.59500  Biso   1.000  Cl
  Cl19     1.0000 0.62900  0.21500  0.60000  Biso   1.000  Cl
  Cl20     1.0000 0.30300  0.84400  0.65400  Biso   1.000  Cl
  Cl21     1.0000 0.82900  0.48900  0.68000  Biso   1.000  Cl
  Cl22     1.0000 0.14200  0.11400  0.73000  Biso   1.000  Cl
  Cl23     1.0000 0.75500  0.73900  0.73900  Biso   1.000  Cl
  Cl24     1.0000 0.37100  0.40000  0.78500  Biso   1.000  Cl
  Cl25     1.0000 0.68200  0.01840  0.82800  Biso   1.000  Cl
  Cl26     1.0000 0.30300  0.65400  0.84400  Biso   1.000  Cl
  Cl27     1.0000 0.85800  0.27000  0.88600  Biso   1.000  Cl
  Cl28     1.0000 0.13700  0.92500  0.92500  Biso   1.000  Cl
  Cl29     1.0000 0.76300  0.55100  0.93300  Biso   1.000  Cl
  Cl30     1.0000 0.31800  0.17200  0.98200  Biso   1.000  Cl
  W1       1.0000 0.00000  0.89200  0.10800  Biso   1.000  W 
  W2       1.0000 0.43300  0.44100  0.22500  Biso   1.000  W 
  W3       1.0000 0.43300  0.22500  0.44100  Biso   1.000  W 
  W4       1.0000 0.56700  0.77500  0.55900  Biso   1.000  W 
  W5       1.0000 0.56700  0.55900  0.77500  Biso   1.000  W 
  W6       1.0000 0.00000  0.10800  0.89200  Biso   1.000  W 
