data_image0
_cell_length_a       5.98458
_cell_length_b       5.98458
_cell_length_c       5.98458
_cell_angle_alpha    90
_cell_angle_beta     90
_cell_angle_gamma    90

_symmetry_space_group_name_H-M    "P 1"
_symmetry_int_tables_number       1

loop_
  _symmetry_equiv_pos_as_xyz
  'x, y, z'

loop_
  _atom_site_label
  _atom_site_occupancy
  _atom_site_fract_x
  _atom_site_fract_y
  _atom_site_fract_z
  _atom_site_thermal_displace_type
  _atom_site_B_iso_or_equiv
  _atom_site_type_symbol
  Ru1      1.0000 0.00000  0.00000  0.00000  Biso   1.000  Ru
  Ru2      1.0000 0.50000  0.50000  0.00000  Biso   1.000  Ru
  Ru3      1.0000 0.50000  0.00000  0.50000  Biso   1.000  Ru
  Ru4      1.0000 0.00000  0.50000  0.50000  Biso   1.000  Ru
  Se1      1.0000 0.87900  0.37900  0.12100  Biso   1.000  Se
  Se2      1.0000 0.62100  0.87900  0.12100  Biso   1.000  Se
  Se3      1.0000 0.37900  0.37900  0.37900  Biso   1.000  Se
  Se4      1.0000 0.12100  0.87900  0.37900  Biso   1.000  Se
  Se5      1.0000 0.87900  0.12100  0.62100  Biso   1.000  Se
  Se6      1.0000 0.62100  0.62100  0.62100  Biso   1.000  Se
  Se7      1.0000 0.37900  0.12100  0.87900  Biso   1.000  Se
  Se8      1.0000 0.12100  0.62100  0.87900  Biso   1.000  Se
