data_image0
_cell_length_a       3.86517
_cell_length_b       3.86307
_cell_length_c       5.77889
_cell_angle_alpha    70.4737
_cell_angle_beta     90
_cell_angle_gamma    90

_symmetry_space_group_name_H-M    "P 1"
_symmetry_int_tables_number       1

loop_
  _symmetry_equiv_pos_as_xyz
  'x, y, z'

loop_
  _atom_site_label
  _atom_site_occupancy
  _atom_site_fract_x
  _atom_site_fract_y
  _atom_site_fract_z
  _atom_site_thermal_displace_type
  _atom_site_B_iso_or_equiv
  _atom_site_type_symbol
  Ge1      1.0000 0.25000  0.86600  0.26900  Biso   1.000  Ge
  Ge2      1.0000 0.75000  0.13400  0.73100  Biso   1.000  Ge
  S1       1.0000 0.75000  0.35300  0.29400  Biso   1.000  S 
  S2       1.0000 0.25000  0.64700  0.70600  Biso   1.000  S 
