data_image0
_cell_length_a       8.33823
_cell_length_b       5.138
_cell_length_c       7.33828
_cell_angle_alpha    90
_cell_angle_beta     90
_cell_angle_gamma    90

_symmetry_space_group_name_H-M    "P 1"
_symmetry_int_tables_number       1

loop_
  _symmetry_equiv_pos_as_xyz
  'x, y, z'

loop_
  _atom_site_label
  _atom_site_occupancy
  _atom_site_fract_x
  _atom_site_fract_y
  _atom_site_fract_z
  _atom_site_thermal_displace_type
  _atom_site_B_iso_or_equiv
  _atom_site_type_symbol
  B1       1.0000 0.69800  0.00784  0.05600  Biso   1.000  B 
  B2       1.0000 0.49100  0.30900  0.16400  Biso   1.000  B 
  B3       1.0000 0.34500  0.69200  0.25000  Biso   1.000  B 
  B4       1.0000 0.84500  0.69200  0.25000  Biso   1.000  B 
  B5       1.0000 0.99100  0.30900  0.33600  Biso   1.000  B 
  B6       1.0000 0.19800  0.00784  0.44400  Biso   1.000  B 
  B7       1.0000 0.80200  0.50800  0.55600  Biso   1.000  B 
  B8       1.0000 0.00901  0.80900  0.66400  Biso   1.000  B 
  B9       1.0000 0.15500  0.19200  0.75000  Biso   1.000  B 
  B10      1.0000 0.65500  0.19200  0.75000  Biso   1.000  B 
  B11      1.0000 0.50900  0.80900  0.83600  Biso   1.000  B 
  B12      1.0000 0.30200  0.50800  0.94400  Biso   1.000  B 
  Li1      1.0000 0.08490  0.95600  0.06620  Biso   1.000  Li
  Li2      1.0000 0.58500  0.95600  0.43400  Biso   1.000  Li
  Li3      1.0000 0.41500  0.45600  0.56600  Biso   1.000  Li
  Li4      1.0000 0.91500  0.45600  0.93400  Biso   1.000  Li
  O1       1.0000 0.41200  0.30200  0.00330  Biso   1.000  O 
  O2       1.0000 0.26000  0.69400  0.09180  Biso   1.000  O 
  O3       1.0000 0.84500  0.88700  0.12300  Biso   1.000  O 
  O4       1.0000 0.94300  0.48400  0.20000  Biso   1.000  O 
  O5       1.0000 0.61900  0.15400  0.20600  Biso   1.000  O 
  O6       1.0000 0.11900  0.15400  0.29400  Biso   1.000  O 
  O7       1.0000 0.44300  0.48400  0.30000  Biso   1.000  O 
  O8       1.0000 0.34500  0.88700  0.37700  Biso   1.000  O 
  O9       1.0000 0.76000  0.69400  0.40800  Biso   1.000  O 
  O10      1.0000 0.91200  0.30200  0.49700  Biso   1.000  O 
  O11      1.0000 0.08760  0.80200  0.50300  Biso   1.000  O 
  O12      1.0000 0.24000  0.19400  0.59200  Biso   1.000  O 
  O13      1.0000 0.65500  0.38700  0.62300  Biso   1.000  O 
  O14      1.0000 0.55700  0.98400  0.70000  Biso   1.000  O 
  O15      1.0000 0.88100  0.65400  0.70600  Biso   1.000  O 
  O16      1.0000 0.38100  0.65400  0.79400  Biso   1.000  O 
  O17      1.0000 0.05750  0.98400  0.80000  Biso   1.000  O 
  O18      1.0000 0.15500  0.38700  0.87700  Biso   1.000  O 
  O19      1.0000 0.74000  0.19400  0.90800  Biso   1.000  O 
  O20      1.0000 0.58800  0.80200  0.99700  Biso   1.000  O 
