data_image0
_cell_length_a       5.53659
_cell_length_b       5.53659
_cell_length_c       7.45702
_cell_angle_alpha    90
_cell_angle_beta     111.792
_cell_angle_gamma    60

_symmetry_space_group_name_H-M    "P 1"
_symmetry_int_tables_number       1

loop_
  _symmetry_equiv_pos_as_xyz
  'x, y, z'

loop_
  _atom_site_label
  _atom_site_occupancy
  _atom_site_fract_x
  _atom_site_fract_y
  _atom_site_fract_z
  _atom_site_thermal_displace_type
  _atom_site_B_iso_or_equiv
  _atom_site_type_symbol
  Cr1      1.0000 0.81300  0.59400  0.21900  Biso   1.000  Cr
  Cr2      1.0000 0.18700  0.40600  0.78100  Biso   1.000  Cr
  O1       1.0000 0.35600  0.32200  0.03370  Biso   1.000  O 
  O2       1.0000 0.04040  0.22700  0.30800  Biso   1.000  O 
  O3       1.0000 0.04040  0.73200  0.30800  Biso   1.000  O 
  O4       1.0000 0.53500  0.73200  0.30800  Biso   1.000  O 
  O5       1.0000 0.96000  0.26800  0.69200  Biso   1.000  O 
  O6       1.0000 0.46500  0.26800  0.69200  Biso   1.000  O 
  O7       1.0000 0.96000  0.77300  0.69200  Biso   1.000  O 
  O8       1.0000 0.64400  0.67800  0.96600  Biso   1.000  O 
  Sr1      1.0000 0.00000  0.00000  0.00000  Biso   1.000  Sr
  Sr2      1.0000 0.59400  0.20300  0.39100  Biso   1.000  Sr
  Sr3      1.0000 0.40600  0.79700  0.60900  Biso   1.000  Sr
