data_image0
_cell_length_a       12.3017
_cell_length_b       8.34382
_cell_length_c       5.17064
_cell_angle_alpha    90
_cell_angle_beta     90.9608
_cell_angle_gamma    90

_symmetry_space_group_name_H-M    "P 1"
_symmetry_int_tables_number       1

loop_
  _symmetry_equiv_pos_as_xyz
  'x, y, z'

loop_
  _atom_site_label
  _atom_site_occupancy
  _atom_site_fract_x
  _atom_site_fract_y
  _atom_site_fract_z
  _atom_site_thermal_displace_type
  _atom_site_B_iso_or_equiv
  _atom_site_type_symbol
  Ca1      1.0000 0.59200  0.60300  0.23800  Biso   1.000  Ca
  Ca2      1.0000 0.90800  0.10300  0.26200  Biso   1.000  Ca
  Ca3      1.0000 0.40800  0.39700  0.76200  Biso   1.000  Ca
  Ca4      1.0000 0.09210  0.89700  0.73800  Biso   1.000  Ca
  Ca5      1.0000 0.76900  0.80900  0.73900  Biso   1.000  Ca
  Ca6      1.0000 0.73100  0.30900  0.76100  Biso   1.000  Ca
  Ca7      1.0000 0.23100  0.19100  0.26100  Biso   1.000  Ca
  Ca8      1.0000 0.26900  0.69100  0.23900  Biso   1.000  Ca
  O1       1.0000 0.16100  0.66600  0.83600  Biso   1.000  O 
  O2       1.0000 0.33900  0.16600  0.66400  Biso   1.000  O 
  O3       1.0000 0.83900  0.33400  0.16400  Biso   1.000  O 
  O4       1.0000 0.66100  0.83400  0.33600  Biso   1.000  O 
  O5       1.0000 0.23300  0.40700  0.98400  Biso   1.000  O 
  O6       1.0000 0.26700  0.90700  0.51600  Biso   1.000  O 
  O7       1.0000 0.76700  0.59300  0.01610  Biso   1.000  O 
  O8       1.0000 0.73300  0.09290  0.48400  Biso   1.000  O 
  O9       1.0000 0.23100  0.46400  0.50900  Biso   1.000  O 
  O10      1.0000 0.26900  0.96400  0.99100  Biso   1.000  O 
  O11      1.0000 0.76900  0.53600  0.49100  Biso   1.000  O 
  O12      1.0000 0.73100  0.03600  0.00934  Biso   1.000  O 
  O13      1.0000 0.90400  0.22000  0.69200  Biso   1.000  O 
  O14      1.0000 0.59600  0.72000  0.80800  Biso   1.000  O 
  O15      1.0000 0.09640  0.78000  0.30800  Biso   1.000  O 
  O16      1.0000 0.40400  0.28000  0.19200  Biso   1.000  O 
  O17      1.0000 0.08250  0.15000  0.52100  Biso   1.000  O 
  O18      1.0000 0.41800  0.65000  0.97900  Biso   1.000  O 
  O19      1.0000 0.91800  0.85000  0.47900  Biso   1.000  O 
  O20      1.0000 0.58200  0.35000  0.02080  Biso   1.000  O 
  O21      1.0000 0.06120  0.15700  0.99800  Biso   1.000  O 
  O22      1.0000 0.43900  0.65700  0.50200  Biso   1.000  O 
  O23      1.0000 0.93900  0.84300  0.00161  Biso   1.000  O 
  O24      1.0000 0.56100  0.34300  0.49800  Biso   1.000  O 
  O25      1.0000 0.05120  0.42200  0.74100  Biso   1.000  O 
  O26      1.0000 0.44900  0.92200  0.75900  Biso   1.000  O 
  O27      1.0000 0.94900  0.57800  0.25900  Biso   1.000  O 
  O28      1.0000 0.55100  0.07810  0.24100  Biso   1.000  O 
  P1       1.0000 0.17300  0.49200  0.76500  Biso   1.000  P 
  P2       1.0000 0.32700  0.99200  0.73500  Biso   1.000  P 
  P3       1.0000 0.82700  0.50800  0.23500  Biso   1.000  P 
  P4       1.0000 0.67300  0.00762  0.26500  Biso   1.000  P 
  P5       1.0000 0.02390  0.23500  0.74400  Biso   1.000  P 
  P6       1.0000 0.47600  0.73500  0.75600  Biso   1.000  P 
  P7       1.0000 0.97600  0.76500  0.25600  Biso   1.000  P 
  P8       1.0000 0.52400  0.26500  0.24400  Biso   1.000  P 
