data_image0
_cell_length_a       4.88846
_cell_length_b       8.38008
_cell_length_c       12.0781
_cell_angle_alpha    70.8122
_cell_angle_beta     89.9813
_cell_angle_gamma    89.82

_symmetry_space_group_name_H-M    "P 1"
_symmetry_int_tables_number       1

loop_
  _symmetry_equiv_pos_as_xyz
  'x, y, z'

loop_
  _atom_site_label
  _atom_site_occupancy
  _atom_site_fract_x
  _atom_site_fract_y
  _atom_site_fract_z
  _atom_site_thermal_displace_type
  _atom_site_B_iso_or_equiv
  _atom_site_type_symbol
  O1       1.0000 0.24700  0.30100  0.07870  Biso   1.000  O 
  O2       1.0000 0.37300  0.60900  0.08830  Biso   1.000  O 
  O3       1.0000 0.75500  0.82700  0.09870  Biso   1.000  O 
  O4       1.0000 0.87100  0.49300  0.13600  Biso   1.000  O 
  O5       1.0000 0.27300  0.35500  0.28300  Biso   1.000  O 
  O6       1.0000 0.25900  0.02070  0.36200  Biso   1.000  O 
  O7       1.0000 0.22500  0.69100  0.38600  Biso   1.000  O 
  O8       1.0000 0.87900  0.19900  0.42800  Biso   1.000  O 
  O9       1.0000 0.61700  0.80200  0.49400  Biso   1.000  O 
  O10      1.0000 0.38300  0.19800  0.50600  Biso   1.000  O 
  O11      1.0000 0.12100  0.80100  0.57200  Biso   1.000  O 
  O12      1.0000 0.77500  0.30900  0.61400  Biso   1.000  O 
  O13      1.0000 0.74100  0.97900  0.63800  Biso   1.000  O 
  O14      1.0000 0.72700  0.64500  0.71700  Biso   1.000  O 
  O15      1.0000 0.12900  0.50700  0.86400  Biso   1.000  O 
  O16      1.0000 0.24500  0.17300  0.90100  Biso   1.000  O 
  O17      1.0000 0.62700  0.39100  0.91200  Biso   1.000  O 
  O18      1.0000 0.75300  0.69900  0.92100  Biso   1.000  O 
  Rb1      1.0000 0.24200  0.93800  0.14600  Biso   1.000  Rb
  Rb2      1.0000 0.73300  0.57000  0.35500  Biso   1.000  Rb
  Rb3      1.0000 0.26700  0.43000  0.64500  Biso   1.000  Rb
  Rb4      1.0000 0.75800  0.06240  0.85400  Biso   1.000  Rb
  Si1      1.0000 0.69700  0.66700  0.06260  Biso   1.000  Si
  Si2      1.0000 0.19300  0.44000  0.14500  Biso   1.000  Si
  Si3      1.0000 0.20000  0.19100  0.39600  Biso   1.000  Si
  Si4      1.0000 0.29400  0.82200  0.44900  Biso   1.000  Si
  Si5      1.0000 0.70600  0.17800  0.55100  Biso   1.000  Si
  Si6      1.0000 0.80000  0.80900  0.60400  Biso   1.000  Si
  Si7      1.0000 0.80700  0.56000  0.85500  Biso   1.000  Si
  Si8      1.0000 0.30300  0.33300  0.93700  Biso   1.000  Si
