data_image0
_cell_length_a       11.9631
_cell_length_b       11.9631
_cell_length_c       11.9631
_cell_angle_alpha    118.194
_cell_angle_beta     118.194
_cell_angle_gamma    93.1572

_symmetry_space_group_name_H-M    "P 1"
_symmetry_int_tables_number       1

loop_
  _symmetry_equiv_pos_as_xyz
  'x, y, z'

loop_
  _atom_site_label
  _atom_site_occupancy
  _atom_site_fract_x
  _atom_site_fract_y
  _atom_site_fract_z
  _atom_site_thermal_displace_type
  _atom_site_B_iso_or_equiv
  _atom_site_type_symbol
  Ca1      1.0000 0.55800  0.28300  0.13000  Biso   1.000  Ca
  Ca2      1.0000 0.07170  0.34700  0.13000  Biso   1.000  Ca
  Ca3      1.0000 0.84700  0.57200  0.13000  Biso   1.000  Ca
  Ca4      1.0000 0.78300  0.05820  0.13000  Biso   1.000  Ca
  Ca5      1.0000 0.33100  0.83100  0.16200  Biso   1.000  Ca
  Ca6      1.0000 0.34700  0.21700  0.27500  Biso   1.000  Ca
  Ca7      1.0000 0.42800  0.55800  0.27500  Biso   1.000  Ca
  Ca8      1.0000 0.71700  0.84700  0.27500  Biso   1.000  Ca
  Ca9      1.0000 0.05820  0.92800  0.27500  Biso   1.000  Ca
  Ca10     1.0000 0.63500  0.13500  0.50000  Biso   1.000  Ca
  Ca11     1.0000 0.16900  0.33100  0.50000  Biso   1.000  Ca
  Ca12     1.0000 0.86500  0.36500  0.50000  Biso   1.000  Ca
  Ca13     1.0000 0.13500  0.63500  0.50000  Biso   1.000  Ca
  Ca14     1.0000 0.83100  0.66900  0.50000  Biso   1.000  Ca
  Ca15     1.0000 0.36500  0.86500  0.50000  Biso   1.000  Ca
  Ca16     1.0000 0.94200  0.07170  0.72500  Biso   1.000  Ca
  Ca17     1.0000 0.28300  0.15300  0.72500  Biso   1.000  Ca
  Ca18     1.0000 0.57200  0.44200  0.72500  Biso   1.000  Ca
  Ca19     1.0000 0.65300  0.78300  0.72500  Biso   1.000  Ca
  Ca20     1.0000 0.66900  0.16900  0.83800  Biso   1.000  Ca
  Ca21     1.0000 0.21700  0.94200  0.87000  Biso   1.000  Ca
  Ca22     1.0000 0.15300  0.42800  0.87000  Biso   1.000  Ca
  Ca23     1.0000 0.92800  0.65300  0.87000  Biso   1.000  Ca
  Ca24     1.0000 0.44200  0.71700  0.87000  Biso   1.000  Ca
  Sb1      1.0000 0.00000  0.00000  0.00000  Biso   1.000  Sb
  Sb2      1.0000 0.25000  0.25000  0.00000  Biso   1.000  Sb
  Sb3      1.0000 0.50000  0.50000  0.00000  Biso   1.000  Sb
  Sb4      1.0000 0.75000  0.75000  0.00000  Biso   1.000  Sb
  Sb5      1.0000 0.52200  0.02190  0.16900  Biso   1.000  Sb
  Sb6      1.0000 0.14700  0.64700  0.16900  Biso   1.000  Sb
  Sb7      1.0000 0.86900  0.36900  0.23800  Biso   1.000  Sb
  Sb8      1.0000 0.36900  0.13100  0.50000  Biso   1.000  Sb
  Sb9      1.0000 0.97800  0.14700  0.50000  Biso   1.000  Sb
  Sb10     1.0000 0.64700  0.47800  0.50000  Biso   1.000  Sb
  Sb11     1.0000 0.35300  0.52200  0.50000  Biso   1.000  Sb
  Sb12     1.0000 0.02190  0.85300  0.50000  Biso   1.000  Sb
  Sb13     1.0000 0.63100  0.86900  0.50000  Biso   1.000  Sb
  Sb14     1.0000 0.13100  0.63100  0.76200  Biso   1.000  Sb
  Sb15     1.0000 0.85300  0.35300  0.83100  Biso   1.000  Sb
  Sb16     1.0000 0.47800  0.97800  0.83100  Biso   1.000  Sb
