data_image0
_cell_length_a       4.43851
_cell_length_b       6.79414
_cell_length_c       11.7212
_cell_angle_alpha    90
_cell_angle_beta     90
_cell_angle_gamma    90

_symmetry_space_group_name_H-M    "P 1"
_symmetry_int_tables_number       1

loop_
  _symmetry_equiv_pos_as_xyz
  'x, y, z'

loop_
  _atom_site_label
  _atom_site_occupancy
  _atom_site_fract_x
  _atom_site_fract_y
  _atom_site_fract_z
  _atom_site_thermal_displace_type
  _atom_site_B_iso_or_equiv
  _atom_site_type_symbol
  C1       1.0000 0.03390  0.75000  0.06190  Biso   1.000  C 
  C2       1.0000 0.53900  0.02900  0.14900  Biso   1.000  C 
  C3       1.0000 0.53900  0.47100  0.14900  Biso   1.000  C 
  C4       1.0000 0.03890  0.02900  0.35100  Biso   1.000  C 
  C5       1.0000 0.03890  0.47100  0.35100  Biso   1.000  C 
  C6       1.0000 0.53400  0.75000  0.43800  Biso   1.000  C 
  C7       1.0000 0.46600  0.25000  0.56200  Biso   1.000  C 
  C8       1.0000 0.96100  0.52900  0.64900  Biso   1.000  C 
  C9       1.0000 0.96100  0.97100  0.64900  Biso   1.000  C 
  C10      1.0000 0.46100  0.52900  0.85100  Biso   1.000  C 
  C11      1.0000 0.46100  0.97100  0.85100  Biso   1.000  C 
  C12      1.0000 0.96600  0.25000  0.93800  Biso   1.000  C 
  Mn1      1.0000 0.24900  0.06770  0.01770  Biso   1.000  Mn
  Mn2      1.0000 0.24900  0.43200  0.01770  Biso   1.000  Mn
  Mn3      1.0000 0.77300  0.25000  0.08880  Biso   1.000  Mn
  Mn4      1.0000 0.43100  0.75000  0.12800  Biso   1.000  Mn
  Mn5      1.0000 0.94500  0.56500  0.19200  Biso   1.000  Mn
  Mn6      1.0000 0.94500  0.93500  0.19200  Biso   1.000  Mn
  Mn7      1.0000 0.27300  0.25000  0.20000  Biso   1.000  Mn
  Mn8      1.0000 0.77300  0.25000  0.30000  Biso   1.000  Mn
  Mn9      1.0000 0.44500  0.56500  0.30800  Biso   1.000  Mn
  Mn10     1.0000 0.44500  0.93500  0.30800  Biso   1.000  Mn
  Mn11     1.0000 0.93100  0.75000  0.37200  Biso   1.000  Mn
  Mn12     1.0000 0.27300  0.25000  0.41100  Biso   1.000  Mn
  Mn13     1.0000 0.74900  0.06770  0.48200  Biso   1.000  Mn
  Mn14     1.0000 0.74900  0.43200  0.48200  Biso   1.000  Mn
  Mn15     1.0000 0.25100  0.56800  0.51800  Biso   1.000  Mn
  Mn16     1.0000 0.25100  0.93200  0.51800  Biso   1.000  Mn
  Mn17     1.0000 0.72700  0.75000  0.58900  Biso   1.000  Mn
  Mn18     1.0000 0.06900  0.25000  0.62800  Biso   1.000  Mn
  Mn19     1.0000 0.55500  0.06530  0.69200  Biso   1.000  Mn
  Mn20     1.0000 0.55500  0.43500  0.69200  Biso   1.000  Mn
  Mn21     1.0000 0.22700  0.75000  0.70000  Biso   1.000  Mn
  Mn22     1.0000 0.72700  0.75000  0.80000  Biso   1.000  Mn
  Mn23     1.0000 0.05540  0.06530  0.80800  Biso   1.000  Mn
  Mn24     1.0000 0.05540  0.43500  0.80800  Biso   1.000  Mn
  Mn25     1.0000 0.56900  0.25000  0.87200  Biso   1.000  Mn
  Mn26     1.0000 0.22700  0.75000  0.91100  Biso   1.000  Mn
  Mn27     1.0000 0.75100  0.56800  0.98200  Biso   1.000  Mn
  Mn28     1.0000 0.75100  0.93200  0.98200  Biso   1.000  Mn
