data_image0
_cell_length_a       3.87153
_cell_length_b       7.8328
_cell_length_c       3.27899
_cell_angle_alpha    90
_cell_angle_beta     90
_cell_angle_gamma    90

_symmetry_space_group_name_H-M    "P 1"
_symmetry_int_tables_number       1

loop_
  _symmetry_equiv_pos_as_xyz
  'x, y, z'

loop_
  _atom_site_label
  _atom_site_occupancy
  _atom_site_fract_x
  _atom_site_fract_y
  _atom_site_fract_z
  _atom_site_thermal_displace_type
  _atom_site_B_iso_or_equiv
  _atom_site_type_symbol
  Cl1      1.0000 0.25000  0.33300  0.25000  Biso   1.000  Cl
  Cl2      1.0000 0.75000  0.66700  0.75000  Biso   1.000  Cl
  Fe1      1.0000 0.75000  0.88700  0.25000  Biso   1.000  Fe
  Fe2      1.0000 0.25000  0.11300  0.75000  Biso   1.000  Fe
  O1       1.0000 0.25000  0.94900  0.25000  Biso   1.000  O 
  O2       1.0000 0.75000  0.05150  0.75000  Biso   1.000  O 
