data_image0
_cell_length_a       4.32522
_cell_length_b       4.32522
_cell_length_c       10.584
_cell_angle_alpha    90
_cell_angle_beta     101.79
_cell_angle_gamma    60

_symmetry_space_group_name_H-M    "P 1"
_symmetry_int_tables_number       1

loop_
  _symmetry_equiv_pos_as_xyz
  'x, y, z'

loop_
  _atom_site_label
  _atom_site_occupancy
  _atom_site_fract_x
  _atom_site_fract_y
  _atom_site_fract_z
  _atom_site_thermal_displace_type
  _atom_site_B_iso_or_equiv
  _atom_site_type_symbol
  Sb1      1.0000 0.79700  0.60200  0.19500  Biso   1.000  Sb
  Sb2      1.0000 0.20300  0.39800  0.80500  Biso   1.000  Sb
  Te1      1.0000 0.00000  0.00000  0.00000  Biso   1.000  Te
  Te2      1.0000 0.57500  0.21200  0.36300  Biso   1.000  Te
  Te3      1.0000 0.42500  0.78800  0.63700  Biso   1.000  Te
