data_image0
_cell_length_a       7.38111
_cell_length_b       5.9161
_cell_length_c       10.0009
_cell_angle_alpha    90
_cell_angle_beta     90
_cell_angle_gamma    90

_symmetry_space_group_name_H-M    "P 1"
_symmetry_int_tables_number       1

loop_
  _symmetry_equiv_pos_as_xyz
  'x, y, z'

loop_
  _atom_site_label
  _atom_site_occupancy
  _atom_site_fract_x
  _atom_site_fract_y
  _atom_site_fract_z
  _atom_site_thermal_displace_type
  _atom_site_B_iso_or_equiv
  _atom_site_type_symbol
  C1       1.0000 0.75200  0.25000  0.08350  Biso   1.000  C 
  C2       1.0000 0.25200  0.25000  0.41600  Biso   1.000  C 
  C3       1.0000 0.74800  0.75000  0.58400  Biso   1.000  C 
  C4       1.0000 0.24800  0.75000  0.91600  Biso   1.000  C 
  O1       1.0000 0.17400  0.75000  0.03520  Biso   1.000  O 
  O2       1.0000 0.71600  0.05920  0.14300  Biso   1.000  O 
  O3       1.0000 0.71600  0.44100  0.14300  Biso   1.000  O 
  O4       1.0000 0.21600  0.05920  0.35700  Biso   1.000  O 
  O5       1.0000 0.21600  0.44100  0.35700  Biso   1.000  O 
  O6       1.0000 0.67400  0.75000  0.46500  Biso   1.000  O 
  O7       1.0000 0.32600  0.25000  0.53500  Biso   1.000  O 
  O8       1.0000 0.78400  0.55900  0.64300  Biso   1.000  O 
  O9       1.0000 0.78400  0.94100  0.64300  Biso   1.000  O 
  O10      1.0000 0.28400  0.55900  0.85700  Biso   1.000  O 
  O11      1.0000 0.28400  0.94100  0.85700  Biso   1.000  O 
  O12      1.0000 0.82600  0.25000  0.96500  Biso   1.000  O 
  Rb1      1.0000 0.19800  0.25000  0.08090  Biso   1.000  Rb
  Rb2      1.0000 0.45900  0.75000  0.23000  Biso   1.000  Rb
  Rb3      1.0000 0.95900  0.75000  0.27000  Biso   1.000  Rb
  Rb4      1.0000 0.69800  0.25000  0.41900  Biso   1.000  Rb
  Rb5      1.0000 0.30200  0.75000  0.58100  Biso   1.000  Rb
  Rb6      1.0000 0.04130  0.25000  0.73000  Biso   1.000  Rb
  Rb7      1.0000 0.54100  0.25000  0.77000  Biso   1.000  Rb
  Rb8      1.0000 0.80200  0.75000  0.91900  Biso   1.000  Rb
