data_image0
_cell_length_a       5.83519
_cell_length_b       7.47736
_cell_length_c       4.94847
_cell_angle_alpha    90
_cell_angle_beta     90
_cell_angle_gamma    90

_symmetry_space_group_name_H-M    "P 1"
_symmetry_int_tables_number       1

loop_
  _symmetry_equiv_pos_as_xyz
  'x, y, z'

loop_
  _atom_site_label
  _atom_site_occupancy
  _atom_site_fract_x
  _atom_site_fract_y
  _atom_site_fract_z
  _atom_site_thermal_displace_type
  _atom_site_B_iso_or_equiv
  _atom_site_type_symbol
  Ni1      1.0000 0.50000  0.00000  0.00000  Biso   1.000  Ni
  Ni2      1.0000 0.50000  0.50000  0.00000  Biso   1.000  Ni
  Ni3      1.0000 0.00000  0.00000  0.50000  Biso   1.000  Ni
  Ni4      1.0000 0.00000  0.50000  0.50000  Biso   1.000  Ni
  O1       1.0000 0.81800  0.57300  0.14300  Biso   1.000  O 
  O2       1.0000 0.81800  0.92700  0.14300  Biso   1.000  O 
  O3       1.0000 0.57200  0.25000  0.17200  Biso   1.000  O 
  O4       1.0000 0.07220  0.25000  0.32800  Biso   1.000  O 
  O5       1.0000 0.31800  0.57300  0.35700  Biso   1.000  O 
  O6       1.0000 0.31800  0.92700  0.35700  Biso   1.000  O 
  O7       1.0000 0.68200  0.07310  0.64300  Biso   1.000  O 
  O8       1.0000 0.68200  0.42700  0.64300  Biso   1.000  O 
  O9       1.0000 0.92800  0.75000  0.67200  Biso   1.000  O 
  O10      1.0000 0.42800  0.75000  0.82800  Biso   1.000  O 
  O11      1.0000 0.18200  0.07310  0.85700  Biso   1.000  O 
  O12      1.0000 0.18200  0.42700  0.85700  Biso   1.000  O 
  Se1      1.0000 0.98700  0.75000  0.01850  Biso   1.000  Se
  Se2      1.0000 0.48700  0.75000  0.48100  Biso   1.000  Se
  Se3      1.0000 0.51300  0.25000  0.51900  Biso   1.000  Se
  Se4      1.0000 0.01340  0.25000  0.98100  Biso   1.000  Se
