data_image0
_cell_length_a       8.32734
_cell_length_b       8.32734
_cell_length_c       8.32734
_cell_angle_alpha    109.757
_cell_angle_beta     109.757
_cell_angle_gamma    109.757

_symmetry_space_group_name_H-M    "P 1"
_symmetry_int_tables_number       1

loop_
  _symmetry_equiv_pos_as_xyz
  'x, y, z'

loop_
  _atom_site_label
  _atom_site_occupancy
  _atom_site_fract_x
  _atom_site_fract_y
  _atom_site_fract_z
  _atom_site_thermal_displace_type
  _atom_site_B_iso_or_equiv
  _atom_site_type_symbol
  B1       1.0000 0.35700  0.25000  0.14300  Biso   1.000  B 
  B2       1.0000 0.14300  0.35700  0.25000  Biso   1.000  B 
  B3       1.0000 0.25000  0.14300  0.35700  Biso   1.000  B 
  B4       1.0000 0.75000  0.85700  0.64300  Biso   1.000  B 
  B5       1.0000 0.85700  0.64300  0.75000  Biso   1.000  B 
  B6       1.0000 0.64300  0.75000  0.85700  Biso   1.000  B 
  Cs1      1.0000 0.31000  0.75000  0.19000  Biso   1.000  Cs
  Cs2      1.0000 0.81000  0.69000  0.25000  Biso   1.000  Cs
  Cs3      1.0000 0.75000  0.19000  0.31000  Biso   1.000  Cs
  Cs4      1.0000 0.25000  0.81000  0.69000  Biso   1.000  Cs
  Cs5      1.0000 0.19000  0.31000  0.75000  Biso   1.000  Cs
  Cs6      1.0000 0.69000  0.25000  0.81000  Biso   1.000  Cs
  O1       1.0000 0.45400  0.25000  0.04610  Biso   1.000  O 
  O2       1.0000 0.25000  0.35200  0.14800  Biso   1.000  O 
  O3       1.0000 0.35200  0.14800  0.25000  Biso   1.000  O 
  O4       1.0000 0.04610  0.45400  0.25000  Biso   1.000  O 
  O5       1.0000 0.14800  0.25000  0.35200  Biso   1.000  O 
  O6       1.0000 0.25000  0.04610  0.45400  Biso   1.000  O 
  O7       1.0000 0.75000  0.95400  0.54600  Biso   1.000  O 
  O8       1.0000 0.85200  0.75000  0.64800  Biso   1.000  O 
  O9       1.0000 0.95400  0.54600  0.75000  Biso   1.000  O 
  O10      1.0000 0.64800  0.85200  0.75000  Biso   1.000  O 
  O11      1.0000 0.75000  0.64800  0.85200  Biso   1.000  O 
  O12      1.0000 0.54600  0.75000  0.95400  Biso   1.000  O 
