data_image0
_cell_length_a       5.19391
_cell_length_b       5.32009
_cell_length_c       5.32009
_cell_angle_alpha    103.785
_cell_angle_beta     60.7815
_cell_angle_gamma    119.218

_symmetry_space_group_name_H-M    "P 1"
_symmetry_int_tables_number       1

loop_
  _symmetry_equiv_pos_as_xyz
  'x, y, z'

loop_
  _atom_site_label
  _atom_site_occupancy
  _atom_site_fract_x
  _atom_site_fract_y
  _atom_site_fract_z
  _atom_site_thermal_displace_type
  _atom_site_B_iso_or_equiv
  _atom_site_type_symbol
  Hf1      1.0000 0.65700  0.50000  0.18600  Biso   1.000  Hf
  Hf2      1.0000 0.15700  0.81400  0.50000  Biso   1.000  Hf
  Hf3      1.0000 0.84300  0.18600  0.50000  Biso   1.000  Hf
  Hf4      1.0000 0.34300  0.50000  0.81400  Biso   1.000  Hf
  Si1      1.0000 0.25000  0.00000  0.00000  Biso   1.000  Si
  Si2      1.0000 0.75000  0.00000  0.00000  Biso   1.000  Si
