data_image0
_cell_length_a       15.4045
_cell_length_b       12.4363
_cell_length_c       4.14043
_cell_angle_alpha    90
_cell_angle_beta     90
_cell_angle_gamma    90

_symmetry_space_group_name_H-M    "P 1"
_symmetry_int_tables_number       1

loop_
  _symmetry_equiv_pos_as_xyz
  'x, y, z'

loop_
  _atom_site_label
  _atom_site_occupancy
  _atom_site_fract_x
  _atom_site_fract_y
  _atom_site_fract_z
  _atom_site_thermal_displace_type
  _atom_site_B_iso_or_equiv
  _atom_site_type_symbol
  In1      1.0000 0.71000  0.33800  0.00000  Biso   1.000  In
  In2      1.0000 0.03130  0.35500  0.00000  Biso   1.000  In
  In3      1.0000 0.42400  0.39600  0.00000  Biso   1.000  In
  In4      1.0000 0.18500  0.47700  0.00000  Biso   1.000  In
  In5      1.0000 0.81500  0.52300  0.00000  Biso   1.000  In
  In6      1.0000 0.57600  0.60400  0.00000  Biso   1.000  In
  In7      1.0000 0.96900  0.64500  0.00000  Biso   1.000  In
  In8      1.0000 0.29000  0.66200  0.00000  Biso   1.000  In
  In9      1.0000 0.68500  0.02340  0.50000  Biso   1.000  In
  In10     1.0000 0.92400  0.10400  0.50000  Biso   1.000  In
  In11     1.0000 0.53100  0.14500  0.50000  Biso   1.000  In
  In12     1.0000 0.21000  0.16200  0.50000  Biso   1.000  In
  In13     1.0000 0.79000  0.83800  0.50000  Biso   1.000  In
  In14     1.0000 0.46900  0.85500  0.50000  Biso   1.000  In
  In15     1.0000 0.07590  0.89600  0.50000  Biso   1.000  In
  In16     1.0000 0.31500  0.97700  0.50000  Biso   1.000  In
  Se1      1.0000 0.77100  0.13600  0.00000  Biso   1.000  Se
  Se2      1.0000 0.09440  0.14900  0.00000  Biso   1.000  Se
  Se3      1.0000 0.42200  0.15600  0.00000  Biso   1.000  Se
  Se4      1.0000 0.57800  0.84400  0.00000  Biso   1.000  Se
  Se5      1.0000 0.90600  0.85100  0.00000  Biso   1.000  Se
  Se6      1.0000 0.22900  0.86400  0.00000  Biso   1.000  Se
  Se7      1.0000 0.92200  0.34400  0.50000  Biso   1.000  Se
  Se8      1.0000 0.59400  0.35100  0.50000  Biso   1.000  Se
  Se9      1.0000 0.27100  0.36400  0.50000  Biso   1.000  Se
  Se10     1.0000 0.72900  0.63600  0.50000  Biso   1.000  Se
  Se11     1.0000 0.40600  0.64900  0.50000  Biso   1.000  Se
  Se12     1.0000 0.07800  0.65600  0.50000  Biso   1.000  Se
