data_image0
_cell_length_a       4.58942
_cell_length_b       4.58943
_cell_length_c       5.52646
_cell_angle_alpha    90
_cell_angle_beta     114.533
_cell_angle_gamma    60

_symmetry_space_group_name_H-M    "P 1"
_symmetry_int_tables_number       1

loop_
  _symmetry_equiv_pos_as_xyz
  'x, y, z'

loop_
  _atom_site_label
  _atom_site_occupancy
  _atom_site_fract_x
  _atom_site_fract_y
  _atom_site_fract_z
  _atom_site_thermal_displace_type
  _atom_site_B_iso_or_equiv
  _atom_site_type_symbol
  C1       1.0000 0.50000  0.25000  0.25000  Biso   1.000  C 
  C2       1.0000 0.50000  0.75000  0.75000  Biso   1.000  C 
  Ni1      1.0000 0.00000  0.00000  0.00000  Biso   1.000  Ni
  Ni2      1.0000 0.00000  0.50000  0.50000  Biso   1.000  Ni
  O1       1.0000 0.21800  0.25000  0.25000  Biso   1.000  O 
  O2       1.0000 0.50000  0.53200  0.25000  Biso   1.000  O 
  O3       1.0000 0.78200  0.96800  0.25000  Biso   1.000  O 
  O4       1.0000 0.21800  0.03170  0.75000  Biso   1.000  O 
  O5       1.0000 0.50000  0.46800  0.75000  Biso   1.000  O 
  O6       1.0000 0.78200  0.75000  0.75000  Biso   1.000  O 
