data_image0
_cell_length_a       4.93923
_cell_length_b       4.93923
_cell_length_c       6.57301
_cell_angle_alpha    112.227
_cell_angle_beta     112.227
_cell_angle_gamma    42.1535

_symmetry_space_group_name_H-M    "P 1"
_symmetry_int_tables_number       1

loop_
  _symmetry_equiv_pos_as_xyz
  'x, y, z'

loop_
  _atom_site_label
  _atom_site_occupancy
  _atom_site_fract_x
  _atom_site_fract_y
  _atom_site_fract_z
  _atom_site_thermal_displace_type
  _atom_site_B_iso_or_equiv
  _atom_site_type_symbol
  Fe1      1.0000 0.00000  0.00000  0.00000  Biso   1.000  Fe
  O1       1.0000 0.65600  0.65600  0.10900  Biso   1.000  O 
  O2       1.0000 0.97600  0.97600  0.28900  Biso   1.000  O 
  O3       1.0000 0.31000  0.31000  0.43600  Biso   1.000  O 
  O4       1.0000 0.69000  0.69000  0.56400  Biso   1.000  O 
  O5       1.0000 0.02390  0.02390  0.71100  Biso   1.000  O 
  O6       1.0000 0.34400  0.34400  0.89100  Biso   1.000  O 
  V1       1.0000 0.81500  0.81500  0.35800  Biso   1.000  V 
  V2       1.0000 0.18500  0.18500  0.64200  Biso   1.000  V 
