data_image0
_cell_length_a       2.93942
_cell_length_b       2.99072
_cell_length_c       3.97271
_cell_angle_alpha    90
_cell_angle_beta     68.2874
_cell_angle_gamma    90

_symmetry_space_group_name_H-M    "P 1"
_symmetry_int_tables_number       1

loop_
  _symmetry_equiv_pos_as_xyz
  'x, y, z'

loop_
  _atom_site_label
  _atom_site_occupancy
  _atom_site_fract_x
  _atom_site_fract_y
  _atom_site_fract_z
  _atom_site_thermal_displace_type
  _atom_site_B_iso_or_equiv
  _atom_site_type_symbol
  B1       1.0000 0.43400  0.75000  0.13300  Biso   1.000  B 
  B2       1.0000 0.56600  0.25000  0.86700  Biso   1.000  B 
  Ni1      1.0000 0.85300  0.25000  0.29500  Biso   1.000  Ni
  Ni2      1.0000 0.14700  0.75000  0.70500  Biso   1.000  Ni
