# generated using pymatgen
data_Cu2PPd2
_symmetry_space_group_name_H-M   'P 1'
_cell_length_a   5.04314095
_cell_length_b   5.04314095
_cell_length_c   5.49003800
_cell_angle_alpha   90.00000000
_cell_angle_beta   90.00000000
_cell_angle_gamma   91.87756864
_symmetry_Int_Tables_number   1
_chemical_formula_structural   Cu2PPd2
_chemical_formula_sum   'Cu4 P2 Pd4'
_cell_volume   139.55465804
_cell_formula_units_Z   2
loop_
 _symmetry_equiv_pos_site_id
 _symmetry_equiv_pos_as_xyz
  1  'x, y, z'
loop_
 _atom_site_type_symbol
 _atom_site_label
 _atom_site_symmetry_multiplicity
 _atom_site_fract_x
 _atom_site_fract_y
 _atom_site_fract_z
 _atom_site_occupancy
  Cu  Cu0  1  0.85647400  0.23325500  0.33667000  1
  Cu  Cu1  1  0.14352600  0.76674500  0.33667000  1
  Cu  Cu2  1  0.23325500  0.85647400  0.83667000  1
  Cu  Cu3  1  0.76674500  0.14352600  0.83667000  1
  P  P4  1  0.00000000  0.50000000  0.00767000  1
  P  P5  1  0.50000000  0.00000000  0.50767000  1
  Pd  Pd6  1  0.75146700  0.64505800  0.65949500  1
  Pd  Pd7  1  0.24853300  0.35494200  0.65949500  1
  Pd  Pd8  1  0.35494200  0.24853300  0.15949500  1
  Pd  Pd9  1  0.64505800  0.75146700  0.15949500  1
