# generated using pymatgen
data_Y2MgS4
_symmetry_space_group_name_H-M   'P 1'
_cell_length_a   7.90955079
_cell_length_b   7.90955079
_cell_length_c   7.90955079
_cell_angle_alpha   60.00000000
_cell_angle_beta   60.00000000
_cell_angle_gamma   60.00000000
_symmetry_Int_Tables_number   1
_chemical_formula_structural   Y2MgS4
_chemical_formula_sum   'Y4 Mg2 S8'
_cell_volume   349.89719401
_cell_formula_units_Z   2
loop_
 _symmetry_equiv_pos_site_id
 _symmetry_equiv_pos_as_xyz
  1  'x, y, z'
loop_
 _atom_site_type_symbol
 _atom_site_label
 _atom_site_symmetry_multiplicity
 _atom_site_fract_x
 _atom_site_fract_y
 _atom_site_fract_z
 _atom_site_occupancy
  Y  Y0  1  0.62500000  0.12500000  0.62500000  1
  Y  Y1  1  0.62500000  0.62500000  0.12500000  1
  Y  Y2  1  0.12500000  0.62500000  0.62500000  1
  Y  Y3  1  0.62500000  0.62500000  0.62500000  1
  Mg  Mg4  1  0.00000000  0.00000000  0.00000000  1
  Mg  Mg5  1  0.25000000  0.25000000  0.25000000  1
  S  S6  1  0.37958500  0.37958500  0.37958500  1
  S  S7  1  0.86124400  0.37958500  0.37958500  1
  S  S8  1  0.37958500  0.86124400  0.37958500  1
  S  S9  1  0.37958500  0.37958500  0.86124400  1
  S  S10  1  0.87041500  0.87041500  0.38875600  1
  S  S11  1  0.87041500  0.38875600  0.87041500  1
  S  S12  1  0.38875600  0.87041500  0.87041500  1
  S  S13  1  0.87041500  0.87041500  0.87041500  1
