# generated using pymatgen
data_Hf2S
_symmetry_space_group_name_H-M   'P 1'
_cell_length_a   3.38667871
_cell_length_b   3.38667871
_cell_length_c   11.78735800
_cell_angle_alpha   90.00000000
_cell_angle_beta   90.00000000
_cell_angle_gamma   120.00001383
_symmetry_Int_Tables_number   1
_chemical_formula_structural   Hf2S
_chemical_formula_sum   'Hf4 S2'
_cell_volume   117.08332299
_cell_formula_units_Z   2
loop_
 _symmetry_equiv_pos_site_id
 _symmetry_equiv_pos_as_xyz
  1  'x, y, z'
loop_
 _atom_site_type_symbol
 _atom_site_label
 _atom_site_symmetry_multiplicity
 _atom_site_fract_x
 _atom_site_fract_y
 _atom_site_fract_z
 _atom_site_occupancy
  Hf  Hf0  1  0.66666700  0.33333300  0.89952300  1
  Hf  Hf1  1  0.33333300  0.66666700  0.39952300  1
  Hf  Hf2  1  0.66666700  0.33333300  0.60047700  1
  Hf  Hf3  1  0.33333300  0.66666700  0.10047700  1
  S  S4  1  0.00000000  0.00000000  0.75000000  1
  S  S5  1  0.00000000  0.00000000  0.25000000  1
