# generated using pymatgen
data_Na2H3CO6
_symmetry_space_group_name_H-M   'P 1'
_cell_length_a   6.87164400
_cell_length_b   9.15878700
_cell_length_c   15.92961000
_cell_angle_alpha   90.00000000
_cell_angle_beta   90.00000000
_cell_angle_gamma   90.00000000
_symmetry_Int_Tables_number   1
_chemical_formula_structural   Na2H3CO6
_chemical_formula_sum   'Na16 H24 C8 O48'
_cell_volume   1002.54472010
_cell_formula_units_Z   8
loop_
 _symmetry_equiv_pos_site_id
 _symmetry_equiv_pos_as_xyz
  1  'x, y, z'
loop_
 _atom_site_type_symbol
 _atom_site_label
 _atom_site_symmetry_multiplicity
 _atom_site_fract_x
 _atom_site_fract_y
 _atom_site_fract_z
 _atom_site_occupancy
  Na  Na0  1  0.25299400  0.76542600  0.51109400  1
  Na  Na1  1  0.24700600  0.26542600  0.48890600  1
  Na  Na2  1  0.74700600  0.73457400  0.01109400  1
  Na  Na3  1  0.75299400  0.23457400  0.98890600  1
  Na  Na4  1  0.74700600  0.23457400  0.48890600  1
  Na  Na5  1  0.75299400  0.73457400  0.51109400  1
  Na  Na6  1  0.25299400  0.26542600  0.98890600  1
  Na  Na7  1  0.24700600  0.76542600  0.01109400  1
  Na  Na8  1  0.24205300  0.50092200  0.74974700  1
  Na  Na9  1  0.25794700  0.00092200  0.25025300  1
  Na  Na10  1  0.75794700  0.99907800  0.24974700  1
  Na  Na11  1  0.74205300  0.49907800  0.75025300  1
  Na  Na12  1  0.75794700  0.49907800  0.25025300  1
  Na  Na13  1  0.74205300  0.99907800  0.74974700  1
  Na  Na14  1  0.24205300  0.00092200  0.75025300  1
  Na  Na15  1  0.25794700  0.50092200  0.24974700  1
  H  H16  1  0.94732800  0.77455400  0.68856600  1
  H  H17  1  0.55267200  0.27455400  0.31143400  1
  H  H18  1  0.05267200  0.72544600  0.18856600  1
  H  H19  1  0.44732800  0.22544600  0.81143400  1
  H  H20  1  0.05267200  0.22544600  0.31143400  1
  H  H21  1  0.44732800  0.72544600  0.68856600  1
  H  H22  1  0.94732800  0.27455400  0.81143400  1
  H  H23  1  0.55267200  0.77455400  0.18856600  1
  H  H24  1  0.04446800  0.01663500  0.60411700  1
  H  H25  1  0.45553200  0.51663500  0.39588300  1
  H  H26  1  0.95553200  0.48336500  0.10411700  1
  H  H27  1  0.54446800  0.98336500  0.89588300  1
  H  H28  1  0.95553200  0.98336500  0.39588300  1
  H  H29  1  0.54446800  0.48336500  0.60411700  1
  H  H30  1  0.04446800  0.51663500  0.89588300  1
  H  H31  1  0.45553200  0.01663500  0.10411700  1
  H  H32  1  0.04277800  0.47054100  0.58209400  1
  H  H33  1  0.45722200  0.97054100  0.41790600  1
  H  H34  1  0.95722200  0.02945900  0.08209400  1
  H  H35  1  0.54277800  0.52945900  0.91790600  1
  H  H36  1  0.95722200  0.52945900  0.41790600  1
  H  H37  1  0.54277800  0.02945900  0.58209400  1
  H  H38  1  0.04277800  0.97054100  0.91790600  1
  H  H39  1  0.45722200  0.47054100  0.08209400  1
  C  C40  1  0.99595600  0.75195200  0.83810900  1
  C  C41  1  0.50404400  0.25195200  0.16189100  1
  C  C42  1  0.00404400  0.74804800  0.33810900  1
  C  C43  1  0.49595600  0.24804800  0.66189100  1
  C  C44  1  0.00404400  0.24804800  0.16189100  1
  C  C45  1  0.49595600  0.74804800  0.83810900  1
  C  C46  1  0.99595600  0.25195200  0.66189100  1
  C  C47  1  0.50404400  0.75195200  0.33810900  1
  O  O48  1  0.98738700  0.67881600  0.76814100  1
  O  O49  1  0.51261300  0.17881600  0.23185900  1
  O  O50  1  0.01261300  0.82118400  0.26814100  1
  O  O51  1  0.48738700  0.32118400  0.73185900  1
  O  O52  1  0.01261300  0.32118400  0.23185900  1
  O  O53  1  0.48738700  0.82118400  0.76814100  1
  O  O54  1  0.98738700  0.17881600  0.73185900  1
  O  O55  1  0.51261300  0.67881600  0.26814100  1
  O  O56  1  0.00662400  0.68294900  0.90939200  1
  O  O57  1  0.49337600  0.18294900  0.09060800  1
  O  O58  1  0.99337600  0.81705100  0.40939200  1
  O  O59  1  0.50662400  0.31705100  0.59060800  1
  O  O60  1  0.99337600  0.31705100  0.09060800  1
  O  O61  1  0.50662400  0.81705100  0.90939200  1
  O  O62  1  0.00662400  0.18294900  0.59060800  1
  O  O63  1  0.49337600  0.68294900  0.40939200  1
  O  O64  1  0.99396400  0.89379300  0.83570300  1
  O  O65  1  0.50603600  0.39379300  0.16429700  1
  O  O66  1  0.00603600  0.60620700  0.33570300  1
  O  O67  1  0.49396400  0.10620700  0.66429700  1
  O  O68  1  0.00603600  0.10620700  0.16429700  1
  O  O69  1  0.49396400  0.60620700  0.83570300  1
  O  O70  1  0.99396400  0.39379300  0.66429700  1
  O  O71  1  0.50603600  0.89379300  0.33570300  1
  O  O72  1  0.90424000  0.83798700  0.63808800  1
  O  O73  1  0.59576000  0.33798700  0.36191200  1
  O  O74  1  0.09576000  0.66201300  0.13808800  1
  O  O75  1  0.40424000  0.16201300  0.86191200  1
  O  O76  1  0.09576000  0.16201300  0.36191200  1
  O  O77  1  0.40424000  0.66201300  0.63808800  1
  O  O78  1  0.90424000  0.33798700  0.86191200  1
  O  O79  1  0.59576000  0.83798700  0.13808800  1
  O  O80  1  0.08926500  0.91039200  0.61542500  1
  O  O81  1  0.41073500  0.41039200  0.38457500  1
  O  O82  1  0.91073500  0.58960800  0.11542500  1
  O  O83  1  0.58926500  0.08960800  0.88457500  1
  O  O84  1  0.91073500  0.08960800  0.38457500  1
  O  O85  1  0.58926500  0.58960800  0.61542500  1
  O  O86  1  0.08926500  0.41039200  0.88457500  1
  O  O87  1  0.41073500  0.91039200  0.11542500  1
  O  O88  1  0.08551000  0.51910500  0.52627600  1
  O  O89  1  0.41449000  0.01910500  0.47372400  1
  O  O90  1  0.91449000  0.98089500  0.02627600  1
  O  O91  1  0.58551000  0.48089500  0.97372400  1
  O  O92  1  0.91449000  0.48089500  0.47372400  1
  O  O93  1  0.58551000  0.98089500  0.52627600  1
  O  O94  1  0.08551000  0.01910500  0.97372400  1
  O  O95  1  0.41449000  0.51910500  0.02627600  1
