# generated using pymatgen
data_LuSi
_symmetry_space_group_name_H-M   'P 1'
_cell_length_a   5.55791574
_cell_length_b   5.55791574
_cell_length_c   3.76766100
_cell_angle_alpha   90.00000000
_cell_angle_beta   90.00000000
_cell_angle_gamma   135.97591377
_symmetry_Int_Tables_number   1
_chemical_formula_structural   LuSi
_chemical_formula_sum   'Lu2 Si2'
_cell_volume   80.88276471
_cell_formula_units_Z   2
loop_
 _symmetry_equiv_pos_site_id
 _symmetry_equiv_pos_as_xyz
  1  'x, y, z'
loop_
 _atom_site_type_symbol
 _atom_site_label
 _atom_site_symmetry_multiplicity
 _atom_site_fract_x
 _atom_site_fract_y
 _atom_site_fract_z
 _atom_site_occupancy
  Lu  Lu0  1  0.85928700  0.14071300  0.75000000  1
  Lu  Lu1  1  0.14071300  0.85928700  0.25000000  1
  Si  Si2  1  0.57837800  0.42162200  0.75000000  1
  Si  Si3  1  0.42162200  0.57837800  0.25000000  1
