# generated using pymatgen
data_LuGa
_symmetry_space_group_name_H-M   'P 1'
_cell_length_a   5.71050308
_cell_length_b   5.71050308
_cell_length_c   4.01071700
_cell_angle_alpha   90.00000000
_cell_angle_beta   90.00000000
_cell_angle_gamma   136.48587845
_symmetry_Int_Tables_number   1
_chemical_formula_structural   LuGa
_chemical_formula_sum   'Lu2 Ga2'
_cell_volume   90.05249104
_cell_formula_units_Z   2
loop_
 _symmetry_equiv_pos_site_id
 _symmetry_equiv_pos_as_xyz
  1  'x, y, z'
loop_
 _atom_site_type_symbol
 _atom_site_label
 _atom_site_symmetry_multiplicity
 _atom_site_fract_x
 _atom_site_fract_y
 _atom_site_fract_z
 _atom_site_occupancy
  Lu  Lu0  1  0.86162700  0.13837300  0.25000000  1
  Lu  Lu1  1  0.13837300  0.86162700  0.75000000  1
  Ga  Ga2  1  0.57861000  0.42139000  0.25000000  1
  Ga  Ga3  1  0.42139000  0.57861000  0.75000000  1
