# generated using pymatgen
data_Nb4CoSi
_symmetry_space_group_name_H-M   'P 1'
_cell_length_a   6.22850500
_cell_length_b   6.22850500
_cell_length_c   5.02322800
_cell_angle_alpha   90.00000000
_cell_angle_beta   90.00000000
_cell_angle_gamma   90.00000000
_symmetry_Int_Tables_number   1
_chemical_formula_structural   Nb4CoSi
_chemical_formula_sum   'Nb8 Co2 Si2'
_cell_volume   194.87248608
_cell_formula_units_Z   2
loop_
 _symmetry_equiv_pos_site_id
 _symmetry_equiv_pos_as_xyz
  1  'x, y, z'
loop_
 _atom_site_type_symbol
 _atom_site_label
 _atom_site_symmetry_multiplicity
 _atom_site_fract_x
 _atom_site_fract_y
 _atom_site_fract_z
 _atom_site_occupancy
  Nb  Nb0  1  0.33333700  0.15245100  0.50000000  1
  Nb  Nb1  1  0.66666300  0.84754900  0.50000000  1
  Nb  Nb2  1  0.15245100  0.66666300  0.50000000  1
  Nb  Nb3  1  0.84754900  0.33333700  0.50000000  1
  Nb  Nb4  1  0.33333700  0.84754900  0.00000000  1
  Nb  Nb5  1  0.84754900  0.66666300  0.00000000  1
  Nb  Nb6  1  0.15245100  0.33333700  0.00000000  1
  Nb  Nb7  1  0.66666300  0.15245100  0.00000000  1
  Co  Co8  1  0.00000000  0.00000000  0.75000000  1
  Co  Co9  1  0.00000000  0.00000000  0.25000000  1
  Si  Si10  1  0.50000000  0.50000000  0.75000000  1
  Si  Si11  1  0.50000000  0.50000000  0.25000000  1
