# generated using pymatgen
data_Mo3P
_symmetry_space_group_name_H-M   'P 1'
_cell_length_a   7.37836502
_cell_length_b   7.37836502
_cell_length_c   7.37836502
_cell_angle_alpha   96.20019539
_cell_angle_beta   96.20019539
_cell_angle_gamma   141.62777795
_symmetry_Int_Tables_number   1
_chemical_formula_structural   Mo3P
_chemical_formula_sum   'Mo12 P4'
_cell_volume   235.50022227
_cell_formula_units_Z   4
loop_
 _symmetry_equiv_pos_site_id
 _symmetry_equiv_pos_as_xyz
  1  'x, y, z'
loop_
 _atom_site_type_symbol
 _atom_site_label
 _atom_site_symmetry_multiplicity
 _atom_site_fract_x
 _atom_site_fract_y
 _atom_site_fract_z
 _atom_site_occupancy
  Mo  Mo0  1  0.93162200  0.93162200  0.40197100  1
  Mo  Mo1  1  0.06837800  0.47034900  0.00000000  1
  Mo  Mo2  1  0.47034900  0.06837800  0.00000000  1
  Mo  Mo3  1  0.52965100  0.52965100  0.59802900  1
  Mo  Mo4  1  0.00000000  0.35476300  0.35476300  1
  Mo  Mo5  1  0.64523700  0.00000000  0.64523700  1
  Mo  Mo6  1  0.35476300  0.00000000  0.35476300  1
  Mo  Mo7  1  0.00000000  0.64523700  0.64523700  1
  Mo  Mo8  1  0.13925900  0.13925900  0.81458500  1
  Mo  Mo9  1  0.86074100  0.67532600  0.00000000  1
  Mo  Mo10  1  0.67532600  0.86074100  0.00000000  1
  Mo  Mo11  1  0.32467400  0.32467400  0.18541500  1
  P  P12  1  0.50000000  0.20839200  0.70839200  1
  P  P13  1  0.79160800  0.50000000  0.29160800  1
  P  P14  1  0.20839200  0.50000000  0.70839200  1
  P  P15  1  0.50000000  0.79160800  0.29160800  1
