# generated using pymatgen
data_SnS2
_symmetry_space_group_name_H-M   'P 1'
_cell_length_a   6.54368129
_cell_length_b   6.54368129
_cell_length_c   6.54368129
_cell_angle_alpha   125.49724173
_cell_angle_beta   125.49724173
_cell_angle_gamma   80.71604106
_symmetry_Int_Tables_number   1
_chemical_formula_structural   SnS2
_chemical_formula_sum   'Sn2 S4'
_cell_volume   179.06931344
_cell_formula_units_Z   2
loop_
 _symmetry_equiv_pos_site_id
 _symmetry_equiv_pos_as_xyz
  1  'x, y, z'
loop_
 _atom_site_type_symbol
 _atom_site_label
 _atom_site_symmetry_multiplicity
 _atom_site_fract_x
 _atom_site_fract_y
 _atom_site_fract_z
 _atom_site_occupancy
  Sn  Sn0  1  0.75000000  0.25000000  0.50000000  1
  Sn  Sn1  1  0.00000000  0.00000000  0.00000000  1
  S  S2  1  0.87500000  0.88206600  0.50706600  1
  S  S3  1  0.11793400  0.62500000  0.99293400  1
  S  S4  1  0.37500000  0.36793400  0.49293400  1
  S  S5  1  0.63206600  0.12500000  0.00706600  1
