# generated using pymatgen
data_BaN2
_symmetry_space_group_name_H-M   'P 1'
_cell_length_a   4.26692603
_cell_length_b   4.26692603
_cell_length_c   7.33778643
_cell_angle_alpha   77.21342757
_cell_angle_beta   77.21342757
_cell_angle_gamma   63.39366604
_symmetry_Int_Tables_number   1
_chemical_formula_structural   BaN2
_chemical_formula_sum   'Ba2 N4'
_cell_volume   115.33745622
_cell_formula_units_Z   2
loop_
 _symmetry_equiv_pos_site_id
 _symmetry_equiv_pos_as_xyz
  1  'x, y, z'
loop_
 _atom_site_type_symbol
 _atom_site_label
 _atom_site_symmetry_multiplicity
 _atom_site_fract_x
 _atom_site_fract_y
 _atom_site_fract_z
 _atom_site_occupancy
  Ba  Ba0  1  0.21154900  0.78845100  0.25000000  1
  Ba  Ba1  1  0.78845100  0.21154900  0.75000000  1
  N  N2  1  0.44501100  0.14849900  0.45408000  1
  N  N3  1  0.85150100  0.55498900  0.04592000  1
  N  N4  1  0.14849900  0.44501100  0.95408000  1
  N  N5  1  0.55498900  0.85150100  0.54592000  1
