# generated using pymatgen
data_KNaICl
_symmetry_space_group_name_H-M   'P 1'
_cell_length_a   4.51040000
_cell_length_b   4.51040000
_cell_length_c   6.81906400
_cell_angle_alpha   90.00000000
_cell_angle_beta   90.00000000
_cell_angle_gamma   90.00000000
_symmetry_Int_Tables_number   1
_chemical_formula_structural   KNaICl
_chemical_formula_sum   'K1 Na1 I1 Cl1'
_cell_volume   138.72504794
_cell_formula_units_Z   1
loop_
 _symmetry_equiv_pos_site_id
 _symmetry_equiv_pos_as_xyz
  1  'x, y, z'
loop_
 _atom_site_type_symbol
 _atom_site_label
 _atom_site_symmetry_multiplicity
 _atom_site_fract_x
 _atom_site_fract_y
 _atom_site_fract_z
 _atom_site_occupancy
  K  K0  1  0.50000000  0.50000000  0.50000000  1
  Na  Na1  1  0.00000000  0.00000000  0.00000000  1
  I  I2  1  0.50000000  0.50000000  0.00000000  1
  Cl  Cl3  1  0.00000000  0.00000000  0.50000000  1
