# generated using pymatgen
data_LaPt
_symmetry_space_group_name_H-M   'P 1'
_cell_length_a   5.90884223
_cell_length_b   5.90884223
_cell_length_c   4.59923400
_cell_angle_alpha   90.00000000
_cell_angle_beta   90.00000000
_cell_angle_gamma   140.53407059
_symmetry_Int_Tables_number   1
_chemical_formula_structural   LaPt
_chemical_formula_sum   'La2 Pt2'
_cell_volume   102.06746930
_cell_formula_units_Z   2
loop_
 _symmetry_equiv_pos_site_id
 _symmetry_equiv_pos_as_xyz
  1  'x, y, z'
loop_
 _atom_site_type_symbol
 _atom_site_label
 _atom_site_symmetry_multiplicity
 _atom_site_fract_x
 _atom_site_fract_y
 _atom_site_fract_z
 _atom_site_occupancy
  La  La0  1  0.86386600  0.13613400  0.75000000  1
  La  La1  1  0.13613400  0.86386600  0.25000000  1
  Pt  Pt2  1  0.59141600  0.40858400  0.75000000  1
  Pt  Pt3  1  0.40858400  0.59141600  0.25000000  1
