# generated using pymatgen
data_LaGa
_symmetry_space_group_name_H-M   'P 1'
_cell_length_a   6.24558698
_cell_length_b   6.24558698
_cell_length_c   4.24850100
_cell_angle_alpha   90.00000000
_cell_angle_beta   90.00000000
_cell_angle_gamma   137.08744968
_symmetry_Int_Tables_number   1
_chemical_formula_structural   LaGa
_chemical_formula_sum   'La2 Ga2'
_cell_volume   112.83755343
_cell_formula_units_Z   2
loop_
 _symmetry_equiv_pos_site_id
 _symmetry_equiv_pos_as_xyz
  1  'x, y, z'
loop_
 _atom_site_type_symbol
 _atom_site_label
 _atom_site_symmetry_multiplicity
 _atom_site_fract_x
 _atom_site_fract_y
 _atom_site_fract_z
 _atom_site_occupancy
  La  La0  1  0.86043500  0.13956500  0.75000000  1
  La  La1  1  0.13956500  0.86043500  0.25000000  1
  Ga  Ga2  1  0.56743800  0.43256200  0.75000000  1
  Ga  Ga3  1  0.43256200  0.56743800  0.25000000  1
