# generated using pymatgen
data_LaAu
_symmetry_space_group_name_H-M   'P 1'
_cell_length_a   6.13987919
_cell_length_b   6.13987919
_cell_length_c   4.86481500
_cell_angle_alpha   90.00000000
_cell_angle_beta   90.00000000
_cell_angle_gamma   142.04980020
_symmetry_Int_Tables_number   1
_chemical_formula_structural   LaAu
_chemical_formula_sum   'La2 Au2'
_cell_volume   112.78319050
_cell_formula_units_Z   2
loop_
 _symmetry_equiv_pos_site_id
 _symmetry_equiv_pos_as_xyz
  1  'x, y, z'
loop_
 _atom_site_type_symbol
 _atom_site_label
 _atom_site_symmetry_multiplicity
 _atom_site_fract_x
 _atom_site_fract_y
 _atom_site_fract_z
 _atom_site_occupancy
  La  La0  1  0.86407500  0.13592500  0.75000000  1
  La  La1  1  0.13592500  0.86407500  0.25000000  1
  Au  Au2  1  0.58601400  0.41398600  0.75000000  1
  Au  Au3  1  0.41398600  0.58601400  0.25000000  1
