# generated using pymatgen
data_SiRu2
_symmetry_space_group_name_H-M   'P 1'
_cell_length_a   4.03764500
_cell_length_b   5.32526900
_cell_length_c   7.45303600
_cell_angle_alpha   90.00000000
_cell_angle_beta   90.00000000
_cell_angle_gamma   90.00000000
_symmetry_Int_Tables_number   1
_chemical_formula_structural   SiRu2
_chemical_formula_sum   'Si4 Ru8'
_cell_volume   160.25179454
_cell_formula_units_Z   4
loop_
 _symmetry_equiv_pos_site_id
 _symmetry_equiv_pos_as_xyz
  1  'x, y, z'
loop_
 _atom_site_type_symbol
 _atom_site_label
 _atom_site_symmetry_multiplicity
 _atom_site_fract_x
 _atom_site_fract_y
 _atom_site_fract_z
 _atom_site_occupancy
  Si  Si0  1  0.25000000  0.29833600  0.90168900  1
  Si  Si1  1  0.75000000  0.70166400  0.09831100  1
  Si  Si2  1  0.25000000  0.79833600  0.59831100  1
  Si  Si3  1  0.75000000  0.20166400  0.40168900  1
  Ru  Ru4  1  0.75000000  0.51393500  0.78846100  1
  Ru  Ru5  1  0.25000000  0.48606500  0.21153900  1
  Ru  Ru6  1  0.75000000  0.01393500  0.71153900  1
  Ru  Ru7  1  0.25000000  0.98606500  0.28846100  1
  Ru  Ru8  1  0.25000000  0.83401100  0.93497100  1
  Ru  Ru9  1  0.75000000  0.16598900  0.06502900  1
  Ru  Ru10  1  0.25000000  0.33401100  0.56502900  1
  Ru  Ru11  1  0.75000000  0.66598900  0.43497100  1
