# generated using pymatgen
data_Ca5As3
_symmetry_space_group_name_H-M   'P 1'
_cell_length_a   8.52900165
_cell_length_b   8.52900165
_cell_length_c   6.80417000
_cell_angle_alpha   90.00000000
_cell_angle_beta   90.00000000
_cell_angle_gamma   119.99999731
_symmetry_Int_Tables_number   1
_chemical_formula_structural   Ca5As3
_chemical_formula_sum   'Ca10 As6'
_cell_volume   428.64937655
_cell_formula_units_Z   2
loop_
 _symmetry_equiv_pos_site_id
 _symmetry_equiv_pos_as_xyz
  1  'x, y, z'
loop_
 _atom_site_type_symbol
 _atom_site_label
 _atom_site_symmetry_multiplicity
 _atom_site_fract_x
 _atom_site_fract_y
 _atom_site_fract_z
 _atom_site_occupancy
  Ca  Ca0  1  0.33333300  0.66666700  0.00000000  1
  Ca  Ca1  1  0.66666700  0.33333300  0.50000000  1
  Ca  Ca2  1  0.66666700  0.33333300  0.00000000  1
  Ca  Ca3  1  0.33333300  0.66666700  0.50000000  1
  Ca  Ca4  1  0.74626100  0.00000000  0.25000000  1
  Ca  Ca5  1  0.74626100  0.74626100  0.75000000  1
  Ca  Ca6  1  0.00000000  0.25373900  0.75000000  1
  Ca  Ca7  1  0.00000000  0.74626100  0.25000000  1
  Ca  Ca8  1  0.25373900  0.25373900  0.25000000  1
  Ca  Ca9  1  0.25373900  0.00000000  0.75000000  1
  As  As10  1  0.38977000  0.00000000  0.25000000  1
  As  As11  1  0.38977000  0.38977000  0.75000000  1
  As  As12  1  0.00000000  0.61023000  0.75000000  1
  As  As13  1  0.00000000  0.38977000  0.25000000  1
  As  As14  1  0.61023000  0.61023000  0.25000000  1
  As  As15  1  0.61023000  0.00000000  0.75000000  1
