# generated using pymatgen
data_FeP
_symmetry_space_group_name_H-M   'P 1'
_cell_length_a   3.05259000
_cell_length_b   5.14800200
_cell_length_c   5.75913800
_cell_angle_alpha   90.00000000
_cell_angle_beta   90.00000000
_cell_angle_gamma   90.00000000
_symmetry_Int_Tables_number   1
_chemical_formula_structural   FeP
_chemical_formula_sum   'Fe4 P4'
_cell_volume   90.50335298
_cell_formula_units_Z   4
loop_
 _symmetry_equiv_pos_site_id
 _symmetry_equiv_pos_as_xyz
  1  'x, y, z'
loop_
 _atom_site_type_symbol
 _atom_site_label
 _atom_site_symmetry_multiplicity
 _atom_site_fract_x
 _atom_site_fract_y
 _atom_site_fract_z
 _atom_site_occupancy
  Fe  Fe0  1  0.25000000  0.50113100  0.70158100  1
  Fe  Fe1  1  0.75000000  0.49886900  0.29841900  1
  Fe  Fe2  1  0.75000000  0.99886900  0.20158100  1
  Fe  Fe3  1  0.25000000  0.00113100  0.79841900  1
  P  P4  1  0.25000000  0.69084700  0.06717700  1
  P  P5  1  0.75000000  0.30915300  0.93282300  1
  P  P6  1  0.75000000  0.80915300  0.56717700  1
  P  P7  1  0.25000000  0.19084700  0.43282300  1
