# generated using pymatgen
data_Co2B4Mo
_symmetry_space_group_name_H-M   'P 1'
_cell_length_a   6.59259535
_cell_length_b   6.59259535
_cell_length_c   6.59259535
_cell_angle_alpha   153.44466498
_cell_angle_beta   153.06171780
_cell_angle_gamma   38.18691966
_symmetry_Int_Tables_number   1
_chemical_formula_structural   Co2B4Mo
_chemical_formula_sum   'Co2 B4 Mo1'
_cell_volume   57.93881010
_cell_formula_units_Z   1
loop_
 _symmetry_equiv_pos_site_id
 _symmetry_equiv_pos_as_xyz
  1  'x, y, z'
loop_
 _atom_site_type_symbol
 _atom_site_label
 _atom_site_symmetry_multiplicity
 _atom_site_fract_x
 _atom_site_fract_y
 _atom_site_fract_z
 _atom_site_occupancy
  Co  Co0  1  0.81441600  0.81441600  0.00000000  1
  Co  Co1  1  0.18558400  0.18558400  0.00000000  1
  B  B2  1  0.42499100  0.92499100  0.50000000  1
  B  B3  1  0.57500900  0.07500900  0.50000000  1
  B  B4  1  0.34836100  0.34836100  0.00000000  1
  B  B5  1  0.65163900  0.65163900  0.00000000  1
  Mo  Mo6  1  0.00000000  0.50000000  0.50000000  1
